18
[NH3+]CC1(CC([O-])=O)CO1	[NH3][CH][C@@]1(CC(=O)O)CO1	
N	-1.3058838733	 1.2570601366	 2.7336415644	-0.423439
H	-1.2731244332	 0.2410560387	 2.6919602962	 0.315181
H	-1.7858757211	 1.5200253432	 3.6029582055	 0.284242
H	-0.3390951264	 1.6371083548	 2.7754723006	 0.313551
C	-1.831564787	 1.8415763971	 1.4345383214	-0.439527
C	-1.1037373559	 3.1478043383	 1.2160871134	 0.400405
C	-1.1197359919	 3.5920094849	-0.2334526708	-0.411859
C	-0.5740596242	 2.5549643237	-1.2446468493	 0.397783
O	-0.8093737168	 1.2894411284	-0.9502556663	-0.391265
O	-0.0075349651	 2.9238674043	-2.2461676247	-0.359345
C	-0.7761038737	 4.1335241729	 2.2680006182	-0.240288
O	 0.212938754	 3.1658171243	 1.8521698525	-0.297233
H	-1.2720439595	 1.2562871315	 0.0012464832	 0.297429
H	-2.9106839765	 1.9809770443	 1.533584774	 0.086379
H	-2.1610019676	 3.7998101601	-0.5155194832	 0.126542
H	-0.5550816406	 4.5153503914	-0.3723691981	 0.124975
H	-0.5312167027	 5.1627711874	 2.0114693432	 0.129225
H	-1.1496016384	 4.0058833879	 3.2858470098	 0.087245
