12
FC(F)(F)C#CC1CO1	FC(F)(F)C#C[C@H]1CO1	
F	 0.0836859298	 0.059004078	 0.0323126598	-0.06956
C	-0.028979684	 1.3938779585	 0.012277563	 0.263755
F	 1.2036239377	 1.9042768444	-0.1056416273	-0.067899
F	-0.711818773	 1.7264913287	-1.0902380453	-0.066463
C	-0.6915674824	 1.8827152238	 1.2194192011	-0.134292
C	-1.2283617168	 2.2880481558	 2.2147670809	 0.166665
C	-1.8936508307	 2.7493047326	 3.4040901623	-0.134879
C	-1.1550950236	 3.4611263249	 4.467512024	-0.156609
O	-2.009648723	 4.1666425704	 3.5783347128	-0.203013
H	-2.7834283405	 2.1866540853	 3.6826103102	 0.134077
H	-1.5061437306	 3.3739795246	 5.4943892212	 0.131557
H	-0.0899725129	 3.6413810531	 4.3394446473	 0.13666
