17
CN=C1N=CNN=C1C	C[N]C1=NCNN=C1C	
C	 0.0439296509	 1.4114288184	 0.0566014943	-0.332446
N	-0.0120293633	-0.0371696061	 0.0662980723	-0.310026
C	-1.1455711568	-0.6272255271	 0.0094332388	 0.301556
N	-2.3916994558	 0.0218029493	-0.0645042745	-0.336062
C	-3.4349834989	-0.7273675372	-0.1150518847	 0.11264
N	-3.4089518671	-2.0804932875	-0.1017230855	-0.236754
N	-2.2509463018	-2.8035457947	-0.0319256492	-0.25862
C	-1.1602327032	-2.1105597287	 0.0216998456	 0.315578
C	 0.1355001028	-2.8521571677	 0.0992004055	-0.455184
H	 0.6596920315	 1.7371055956	-0.7912303363	 0.118735
H	-0.9328929517	 1.9023775446	-0.0020575249	 0.12897
H	 0.5621335071	 1.752632325	 0.9616508271	 0.118748
H	-4.4303750308	-0.2863881543	-0.1734396031	 0.133705
H	-4.248520559	-2.6338566582	-0.1427946953	 0.277707
H	-0.0435351552	-3.9283716857	 0.0988712703	 0.126353
H	 0.7767973349	-2.5742720713	-0.7427549236	 0.147551
H	 0.6812820165	-2.5589177042	 1.0011447133	 0.14755
