21
C[NH+](CCN)CC([O-])=O	CN(CCN)CC(=O)O	
C	-0.2041185888	 1.7114906505	-0.2453850878	-0.341849
N	-0.1153854095	 0.2489390334	-0.2190165945	-0.099689
H	 1.6190820484	-0.0599384721	 0.6167409587	 0.294839
C	-1.4145182592	-0.4014155695	-0.0166861963	-0.116502
C	-1.9315934026	-0.2873395934	 1.4198826471	-0.168625
N	-3.1831316978	-1.0403377511	 1.5379551644	-0.50587
C	 0.6203872054	-0.2468455126	-1.3824802362	-0.299609
C	 2.1401269344	-0.1858829963	-1.1569316381	 0.409661
O	 2.4764399219	-0.1064983359	 0.1403284928	-0.361028
O	 2.9444841276	-0.2411007517	-2.0455795176	-0.330953
H	 0.7971486681	 2.1390774009	-0.3467880353	 0.142476
H	-0.8210176715	 2.0735688728	-1.0855728357	 0.112582
H	-0.633463411	 2.0858039311	 0.6858128096	 0.131272
H	-2.1733567803	-0.001690614	-0.715203842	 0.083849
H	-1.308997581	-1.4659402316	-0.2417248993	 0.12274
H	-1.1921169559	-0.7403611382	 2.0894574864	 0.112756
H	-2.0212955217	 0.7708060817	 1.714566714	 0.086592
H	-3.4663985166	-1.0890535137	 2.5112262905	 0.23304
H	-3.9297254921	-0.5500639988	 1.053304699	 0.227711
H	 0.3737330136	-1.3012253998	-1.5440295756	 0.140189
H	 0.3891867584	 0.2851640683	-2.3160861743	 0.126418
