14
N#CC1=NC=C2CCN12	N#Cc1ncc2CCn12	
N	-0.0395471458	-1.180491091	-0.1396991824	-0.348126
C	-0.0886405533	-0.0276008439	-0.0417898855	 0.257891
C	-0.0922623849	 1.3816900693	 0.0898740621	 0.201177
N	-1.1356718825	 2.1946601287	-0.0649938926	-0.29643
C	-0.7012580814	 3.4742919268	 0.1512684395	-0.218893
C	 0.6466333199	 3.4316049655	 0.4472584728	 0.289723
C	 2.0522111945	 3.8989014401	 0.8044838754	-0.376176
C	 2.4338747178	 2.3713691859	 0.7460903849	-0.17133
N	 1.009487737	 2.1269507229	 0.4053208876	-0.05358
H	-1.3750546904	 4.312790385	 0.0801183255	 0.125692
H	 2.5502776002	 4.5197562535	 0.0573502136	 0.143211
H	 2.16421825	 4.3570473056	 1.7890114254	 0.143215
H	 3.1212644668	 2.0805270207	-0.0497599787	 0.151802
H	 2.7327126121	 1.9168805409	 1.6919315224	 0.151822
