14
CC1=COC(=N)OC1=O	CC1=CO[C]([NH])OC1=O	
C	-0.3105689414	 1.5350594722	 0.0029302848	-0.47654
C	-0.0059506522	 0.0667343027	-0.023803307	 0.028987
C	 0.1050473576	-0.6585853562	-1.143868646	 0.017561
O	 0.378953575	-1.9810685813	-1.1869146069	-0.194285
C	 0.5671176286	-2.6851179418	-0.0306173433	 0.475926
N	 0.8195739321	-3.9096841974	-0.1160942733	-0.528981
O	 0.4650863348	-1.9956417639	 1.1401185724	-0.250749
C	 0.1837101762	-0.62685215	 1.2452656924	 0.400465
O	 0.1239009322	-0.1527846954	 2.3411973474	-0.308416
H	 0.4917947384	 2.0896587005	 0.4992764905	 0.152393
H	-0.4326499264	 1.9291187475	-1.0090650496	 0.127471
H	-1.2273035147	 1.731494099	 0.5674134185	 0.152503
H	-0.0139906495	-0.2591757341	-2.1441388132	 0.155877
H	 0.9366217594	-4.312027732	 0.8109058533	 0.247788
