11
CC#CCO	CC#CCO	
C	-0.0132505638	 1.4542089373	-0.0093912691	-0.495748
C	-0.0188419646	-0.0005447046	 0.027308287	 0.05669
C	-0.030975014	-1.2033578806	 0.0545335863	 0.09925
C	-0.0224057055	-2.6594703816	 0.0971521433	-0.212127
O	-1.2571224304	-3.162734374	-0.4025761045	-0.409854
H	 0.7956526635	 1.835901338	-0.6420392243	 0.147447
H	-0.9571150473	 1.8378734084	-0.4120147777	 0.153346
H	 0.1165420126	 1.8797368918	 0.9917763014	 0.147447
H	 0.8273109114	-3.0335583063	-0.4976264596	 0.112832
H	 0.1486375892	-2.9897636084	 1.1351177457	 0.112832
H	-1.2123139611	-4.12334203	-0.3581831386	 0.287884
