18
CC1CC(CC1=O)C#N	C[C@H]1C[C@@H](CC1=O)C#N	
C	-0.2448286206	 1.5433432408	-0.0022095194	-0.409931
C	 0.0717377475	 0.0510804045	 0.006630174	-0.082729
C	 0.8500019444	-0.5043942695	-1.1959301882	-0.24122
C	 1.4728921994	-1.8363628755	-0.6795912018	-0.174335
C	 1.8580671933	-1.515203597	 0.7857209404	-0.336453
C	 0.9115222401	-0.3845286969	 1.2150019492	 0.414839
O	 0.8605167286	 0.0939435126	 2.3168678454	-0.310806
C	 0.5062209484	-2.9341117551	-0.7557209348	 0.273304
N	-0.2649976401	-3.7932987777	-0.8147899357	-0.321866
H	 0.6632352553	 2.1356310495	-0.1581877411	 0.120116
H	-0.9548507838	 1.7946553616	-0.7949876816	 0.120704
H	-0.6737284678	 1.8382498224	 0.9587460582	 0.145375
H	-0.8677878893	-0.5168473896	 0.0970745811	 0.129044
H	 0.2347761264	-0.6521883141	-2.0850919048	 0.130364
H	 1.6664567067	 0.1771429306	-1.4621689173	 0.112938
H	 2.3438573185	-2.1232508979	-1.2748543503	 0.131105
H	 1.8001026773	-2.3651907948	 1.4676940214	 0.15564
H	 2.8828951358	-1.1298233139	 0.8299419854	 0.143912
