14
NC(=N)C1=NNC(O)=N1	NC(=N)c1n[nH]c(O)n1	
N	 0.2798487177	 0.3214981704	-1.1879030855	-0.552103
C	-0.0977438692	 0.1308370053	 0.1265173568	 0.252484
N	 0.4148018157	 0.6537502914	 1.1742183528	-0.501808
C	-1.270329262	-0.770829195	 0.2513825223	 0.376218
N	-1.9153820777	-0.9870587073	 1.3823742425	-0.258062
N	-2.8788700691	-1.8701225387	 0.995571325	-0.247983
C	-2.7626384346	-2.1292449613	-0.3189559593	 0.463639
O	-3.596331613	-2.9698935802	-0.9360501316	-0.418535
N	-1.7614790851	-1.4593261859	-0.8368095914	-0.434628
H	 1.2099467209	 0.6701790907	-1.3532944905	 0.244986
H	-0.0729112773	-0.3445124677	-1.8584521716	 0.263302
H	 1.2060411111	 1.2526926147	 0.9288310115	 0.198594
H	-3.5457372474	-2.2281486014	 1.6588025539	 0.291199
H	-3.3345495299	-2.999295175	-1.8649175848	 0.322698
