13
OC1=CN=C(N=C1)C#C	Oc1cnc(nc1)C#C	
O	 0.0650810794	 1.3695171071	 0.1234729004	-0.428656
C	 0.0594197717	 0.0188100246	 0.0382528539	 0.339416
C	 0.0869701936	-0.698394782	-1.1574131719	-0.130767
N	 0.0800705047	-2.0259487232	-1.1906265013	-0.263866
C	 0.0449693573	-2.6591909895	-0.0090257022	 0.175946
N	 0.016477001	-2.0636690418	 1.1951839571	-0.268664
C	 0.0237927121	-0.7378613062	 1.2123753523	-0.066003
C	 0.0371905833	-4.0907756627	-0.031776341	 0.253422
C	 0.0306202977	-5.2929710023	-0.0504981317	-0.352771
H	 0.0908570945	 1.7513015398	-0.7615116178	 0.307515
H	 0.1154899049	-0.1794373108	-2.1165570781	 0.108326
H	 0.00103051	-0.2406934737	 2.179195821	 0.129683
H	 0.0248160499	-6.3548384395	-0.0663092206	 0.196419
