20
C1CC2(C1)CCC=C2	C1CC2(C1)CCC=C2	
C	 0.112033258	 1.7215181994	-0.1004847165	-0.210134
C	 1.6188919729	 1.4317316445	 0.1186904856	-0.259071
C	 1.2473859867	-0.0192724834	 0.5935730153	 0.34247
C	-0.1477554177	 0.193320413	-0.0763768119	-0.267656
C	 2.1150662905	-1.2222194134	 0.1523317162	-0.303054
C	 2.8731506715	-1.708549922	 1.4149285488	-0.261189
C	 2.0972020861	-1.0663835431	 2.5398600232	-0.080787
C	 1.22499881	-0.1639628552	 2.0945793863	-0.106236
H	-0.3370991423	 2.2276714799	 0.7587948657	 0.100606
H	-0.1707399978	 2.2666474093	-1.0039828783	 0.093847
H	 2.171553478	 1.4067595458	-0.8258028761	 0.095063
H	 2.1638654899	 2.0634401088	 0.825233489	 0.094189
H	-1.0220156745	-0.172300141	 0.4698157654	 0.092949
H	-0.1667610451	-0.231679443	-1.0851874087	 0.095169
H	 1.4539115102	-2.0196964016	-0.2054882375	 0.101315
H	 2.7847148902	-0.9688551081	-0.6747795781	 0.092001
H	 2.9056797649	-2.8017558319	 1.4896016279	 0.100682
H	 3.9197054541	-1.3730018728	 1.4240468589	 0.104538
H	 2.2721745124	-1.3048464757	 3.5836443328	 0.088259
H	 0.580618952	 0.4456331003	 2.7207463521	 0.087039
