13
N=CNC1=NOC(=N)O1	N=CNC1=NO[C@@H]([NH])O1	
N	 0.3204845192	 1.1892732148	 0.0026569163	-0.391338
C	 0.0422590027	-0.0437023242	 0.0011079574	 0.073361
N	-1.2654376631	-0.5163544555	 0.0118115409	-0.408494
C	-2.4157844004	 0.2190606428	 0.0261693262	 0.568951
N	-2.5867044296	 1.4940700583	 0.0319853794	-0.194939
O	-4.02387944	 1.6146574253	 0.0471862058	-0.245909
C	-4.5818284504	 0.3797453097	 0.0490976638	 0.519195
N	-5.7834495372	 0.0258683104	 0.0602696032	-0.579507
O	-3.5460343821	-0.5316438625	 0.0354596059	-0.221701
H	 1.3283648128	 1.3294228482	-0.0064902828	 0.240058
H	 0.7509915868	-0.8789222185	-0.0085844499	 0.111933
H	-1.4093981846	-1.5134676829	 0.0105416426	 0.281497
H	-6.398963024	 0.8352162241	 0.0690988614	 0.246893
