14
CC1=NNC(=C1)C#C	Cc1n[nH]c(c1)C#C	
C	-0.0013675164	 1.4944637649	-0.0896644228	-0.498915
C	 0.0024188283	 0.0046216402	 0.0481835138	 0.354286
N	-0.0613308244	-0.7779229542	-1.0322918491	-0.26403
N	-0.0377948685	-2.0312582134	-0.5566736613	-0.281981
C	 0.0395959536	-2.0886982669	 0.8052583411	 0.257666
C	 0.0675120119	-0.7680671866	 1.2282641865	-0.399795
C	 0.0763453732	-3.3088173877	 1.5108168209	 0.279479
C	 0.1069054226	-4.359299573	 2.0990258527	-0.436485
H	 0.9062744823	 1.9373645862	 0.3342561082	 0.13088
H	-0.0584960537	 1.7691447408	-1.1448663607	 0.14176
H	-0.8550794273	 1.9418438612	 0.4306692899	 0.130923
H	-0.0761100697	-2.8095751809	-1.1931913038	 0.277828
H	 0.1266484412	-0.4265784967	 2.2486152209	 0.110462
H	 0.134290307	-5.2814080238	 2.6249695935	 0.197922
