22
CCC(C[NH2+]C)C([O-])=O	CC[C@@H](CNC)C(=O)O	
C	 0.0409800111	 1.5827435111	-0.1670356601	-0.39221
C	 0.0112911028	 0.0681687794	 0.0598497642	-0.170917
C	-1.4054007941	-0.5281506513	 0.1088050368	-0.156298
C	-1.3987245718	-2.0502204584	-0.1453465917	-0.170671
N	-2.7633782176	-2.5600411234	-0.3484075175	-0.301552
H	-3.3689655404	-1.5454520569	 0.9498228836	 0.302384
H	-3.1271314535	-2.1839109482	-1.2197284304	 0.233827
C	-2.855424704	-4.0204259575	-0.374111178	-0.325815
C	-2.1289933023	-0.1793180302	 1.4282395266	 0.418846
O	-1.7162874216	 0.6392304539	 2.2104823645	-0.331983
O	-3.2696449026	-0.8439805264	 1.6485999872	-0.38062
H	 1.0723115347	 1.9459722863	-0.2138734008	 0.108872
H	-0.446285162	 1.8490361287	-1.1126259368	 0.101511
H	-0.4704001544	 2.1016179881	 0.6450529934	 0.154466
H	 0.5674661813	-0.4288265852	-0.7452604194	 0.083489
H	 0.5265829417	-0.1715140996	 0.9962164148	 0.115016
H	-2.002585064	-0.0710310157	-0.6968650235	 0.093835
H	-0.7446244055	-2.2778361606	-1.0011617771	 0.101745
H	-0.9772870923	-2.5725633043	 0.7222739419	 0.126497
H	-3.8847288571	-4.3172093688	-0.5908561782	 0.133364
H	-2.192078416	-4.4839868751	-1.1205434159	 0.113966
H	-2.5880429624	-4.416323006	 0.6102379764	 0.142247
