19
CCCC(=O)CC	CCCC(=O)CC	
C	-9.9614*^-6	 1.6064730532	-0.028566676	-0.386651
C	-0.0087586515	 0.0767621839	 0.018325883	-0.157235
C	 0.6778968961	-0.5558367274	-1.1919555251	-0.27842
C	 0.6848766986	-2.0801587968	-1.1765541195	 0.370393
O	 0.1793754781	-2.7140310957	-0.2775914954	-0.296869
C	 1.3649751321	-2.7638942863	-2.3581181829	-0.274972
C	 1.3309625068	-4.288431809	-2.2853894535	-0.373703
H	 1.0224689437	 2.0004567368	-0.052973182	 0.111727
H	-0.5182477297	 1.9826878403	-0.91804899	 0.111748
H	-0.4975201242	 2.0310287211	 0.8487877741	 0.115228
H	 0.4829469408	-0.2761398443	 0.9311547084	 0.111255
H	-1.0376791084	-0.2937748997	 0.0774695856	 0.111569
H	 0.2008023017	-0.2291974478	-2.1276703988	 0.115334
H	 1.7195036207	-0.2125746548	-1.2753496238	 0.115029
H	 0.8872392671	-2.3997980448	-3.2783172565	 0.118178
H	 2.3979100395	-2.3926038003	-2.4116851629	 0.118456
H	 1.8262503741	-4.646508529	-1.3793624355	 0.130676
H	 0.3015808427	-4.6545562936	-2.2565792183	 0.130386
H	 1.8317967531	-4.728854956	-3.1521317809	 0.10787
