13
N#CCC1=CN=CN=N1	N#CCc1cncnn1	
N	-0.6679924234	-0.3693899378	-1.3186388064	-0.299291
C	-0.2886169306	 0.3159750779	-0.4698803029	 0.268963
C	 0.2018087946	 1.1934201559	 0.5893140401	-0.423159
C	 1.5209120824	 1.8725003914	 0.2685972992	 0.324305
C	 2.092551172	 1.9253352979	-1.0068994244	-0.033421
N	 3.2386283432	 2.5612075269	-1.2053180379	-0.22975
C	 3.7681314433	 3.118793041	-0.1125819631	 0.111424
N	 3.2658309683	 3.0893630045	 1.1219013749	-0.178083
N	 2.1182694346	 2.4501299552	 1.3103217432	-0.225253
H	-0.557726034	 1.957819193	 0.7942098517	 0.187118
H	 0.3161420509	 0.6226860279	 1.5165216102	 0.189551
H	 1.6211819624	 1.4473537733	-1.8618124612	 0.159739
H	 4.7069326165	 3.6521788829	-0.2263720233	 0.147857
