11
N#CC#CC1=NNN=C1	N#CC#Cc1n[nH]nc1	
N	 0.0554352568	-3.7100138219	-0.018591168	-0.32886
C	 0.0302125374	-2.5480662819	-0.0118073878	 0.170159
C	 0.0041107856	-1.1851990037	-0.0038945348	 0.241361
C	-0.0187443039	 0.0244496557	 0.003128065	-0.014536
C	-0.0072097993	 1.4323199005	 0.0107717825	 0.157801
N	-1.1321369474	 2.1718297671	 0.0293117992	-0.254612
N	-0.6704321884	 3.4050549239	 0.0301719329	-0.097172
N	 0.6490676782	 3.562223992	 0.0140738805	-0.157512
C	 1.0997617295	 2.3131769135	 0.0013977251	-0.172725
H	-1.2945991476	 4.1974308335	 0.0425579903	 0.306576
H	 2.1538144491	 2.0903837314	-0.0134004749	 0.14952
