19
CC12C3CC1(O)C=CC23	C[C@@]12[C@H]3C[C@]1(O)C=C[C@@H]23	
C	-0.0241186255	 1.5297646653	-0.0046563055	-0.515125
C	-0.0150919178	 0.0333026507	 0.0243791566	 0.308288
C	 0.4644676259	-1.0166294818	-0.949185341	-0.125082
C	 1.2951409312	-1.7039638419	 0.1251833409	-0.283847
C	 0.4804512815	-0.8784661797	 1.2037371791	 0.322453
O	 1.1957358	-0.2128488459	 2.2055731473	-0.499287
C	-0.7185127868	-1.7157312369	 1.5935021109	-0.182858
C	-1.550508932	-1.7796234854	 0.5483690698	-0.075933
C	-1.0383177437	-0.9139949566	-0.5489220148	-0.136389
H	 0.9642481594	 1.9352255438	 0.2351477086	 0.130156
H	-0.3094266943	 1.8944297255	-0.9970466322	 0.114996
H	-0.7351596672	 1.9371255805	 0.7227330286	 0.126619
H	 0.7430060544	-0.9012200954	-1.9906227978	 0.084259
H	 1.2864219381	-2.7969183937	 0.2008966382	 0.082975
H	 2.3225368049	-1.3305569172	 0.0989947015	 0.105111
H	 1.5148957512	-0.8640370493	 2.8390014684	 0.27829
H	-0.7734157091	-2.2936230369	 2.5093996428	 0.08808
H	-2.4376590788	-2.395653564	 0.4664447915	 0.096661
H	-1.6916991216	-0.566256621	-1.3417794931	 0.080636
