14
CC1=NC(=N)NC(F)=N1	C[C@H]1N=C([NH])NC(=N1)F	
C	-0.0043084222	 1.4759750992	 0.002728885	-0.454789
C	-0.0284716991	-0.0211396101	 0.0105133438	 0.338509
N	-1.1645896793	-0.636757941	-0.1179743004	-0.322613
C	-1.1864805837	-2.0248842506	-0.110769782	 0.412656
N	-2.1947969484	-2.7899582355	-0.223249337	-0.555892
N	 0.0829731454	-2.6419922348	 0.0419537159	-0.36956
C	 1.1840021894	-1.8933459929	 0.1654183446	 0.419696
F	 2.2932756202	-2.5866080444	 0.2999694449	-0.043564
N	 1.2219571177	-0.6126419064	 0.1608561132	-0.387696
H	 0.6403477395	 1.8295301711	-0.808724513	 0.149366
H	-1.0104779887	 1.8753389275	-0.1170303483	 0.14408
H	 0.4376987143	 1.8419460286	 0.9353313484	 0.149354
H	-3.0310280391	-2.2175257227	-0.3250239512	 0.232202
H	 0.122969384	-3.6516245181	 0.053731516	 0.288253
