13
O=CN1C=C(C=O)C=N1	O=Cn1cc(C=O)cn1	
O	-0.0740626167	-0.0326444782	-0.0002947365	-0.23895
C	-0.0087211795	 1.1584197019	 0.0090852951	 0.1982
N	 1.1920790253	 1.8979092137	 0.0020289309	-0.024038
C	 1.2843303776	 3.2606578059	 0.0125193209	-0.08264
C	 2.6241942766	 3.5682719143	 0.0001757371	 0.064043
C	 3.2432124093	 4.8931155344	 0.0043769335	 0.078668
O	 4.4382821274	 5.0798184055	-0.0072294738	-0.265411
C	 3.275594199	 2.2928267617	-0.0176845479	-0.029246
N	 2.4217670258	 1.2951956488	-0.0166760126	-0.216891
H	-0.8776474663	 1.8413389513	 0.0244167594	 0.109199
H	 0.4051723853	 3.8866549747	 0.0275404902	 0.171775
H	 2.5258730469	 5.742841642	 0.0195397601	 0.074849
H	 4.3390416293	 2.1050045339	-0.0310551964	 0.160441
