20
[O-]C(=O)CC[NH+]1CCC1	OC(=O)CCN1CCC1	
O	-1.1893313433	 2.5224524114	-1.2651973208	-0.375636
C	-0.5512711562	 2.2563351678	-0.1158875323	 0.404163
O	 0.5765600494	 2.6208016358	 0.0882906545	-0.332366
C	-1.3716186847	 1.4873888481	 0.9284406485	-0.344544
C	-2.3484002561	 0.4510050691	 0.3572582381	-0.172424
N	-3.3424643192	 1.0811759317	-0.5068882277	-0.089647
H	-2.090150084	 2.1046549305	-1.2289436944	 0.299822
C	-4.48094972	 1.8129672301	 0.1129006138	-0.167338
C	-5.4019178271	 1.2582057138	-0.9993861345	-0.230807
C	-4.2874068481	 0.2167425187	-1.2577045701	-0.165235
H	-0.6646798953	 1.0121841386	 1.6110636444	 0.136623
H	-1.9283503895	 2.2276000548	 1.5186967906	 0.131678
H	-1.8021825163	-0.281080773	-0.2495449312	 0.124278
H	-2.8295648484	-0.1038559262	 1.1810629474	 0.095379
H	-4.7365206705	 1.4152859576	 1.1062853152	 0.101723
H	-4.3464513096	 2.8955114063	 0.1841910238	 0.121623
H	-6.376191651	 0.8786138874	-0.69343872	 0.116432
H	-5.5266934855	 1.9560718294	-1.8287691933	 0.125234
H	-3.9918426749	 0.0098031497	-2.2898211647	 0.120163
H	-4.4787025597	-0.7348294817	-0.7407074774	 0.10088
