15
C1NC2=NC3C4OC13C24	C1NC2=NC=C[C@H]2C1=O	
C	-0.0349386765	 1.7700473792	-0.399568396	-0.273531
N	 1.2517550273	 1.7505755815	 0.3083420572	-0.360831
C	 1.7039217011	 0.4607321146	 0.3859927109	 0.395034
N	 2.4169108451	-0.1468776487	 1.2723145687	-0.344018
C	 2.2349709024	-1.5254473768	 0.9615619003	-0.017349
C	 1.380328247	-1.7748243512	-0.0532921541	-0.186985
O	-1.4076205173	-0.1584093958	-1.0347772496	-0.28026
C	-0.3362655906	 0.2777880874	-0.7324136472	 0.352046
C	 1.0204316994	-0.4298445522	-0.6158026548	-0.206809
H	-0.8420336691	 2.1906889421	 0.2084441844	 0.147812
H	 0.0117783651	 2.3411909441	-1.3358638275	 0.145141
H	 1.3596505987	 2.3280372377	 1.1296391771	 0.259433
H	 2.7593282395	-2.2548329321	 1.5662644575	 0.109276
H	 1.1174707671	-2.7293766246	-0.4810691942	 0.110469
H	 1.4697842707	-0.2985522351	-1.6152936528	 0.150571
