15
OCC1=NNC(=N)N=C1	OCc1n[nH]c([NH])nc1	
O	 0.0167174594	 1.4454884324	 0.0114220754	-0.394037
C	 0.001553512	 0.0405692844	 0.001077984	-0.161544
C	-1.4199468196	-0.4604573614	 0.0122866823	 0.277621
N	-2.4116169162	 0.3799711229	 0.0217469921	-0.187823
N	-3.6306148964	-0.1471952495	 0.0308663531	-0.236443
C	-3.963352017	-1.5093812804	 0.0313094564	 0.437133
N	-5.1957382824	-1.8330828106	 0.0409073798	-0.558253
N	-2.8732383048	-2.3909416471	 0.0207371243	-0.292575
C	-1.688681269	-1.8775057838	 0.0120121202	-0.024673
H	 0.9347846604	 1.7312503956	-0.0004539826	 0.295765
H	 0.5084885605	-0.3707353225	-0.8904038343	 0.107788
H	 0.5267990602	-0.3840706439	 0.875549263	 0.107616
H	-4.3946331143	 0.5137200733	 0.0384500578	 0.283347
H	-5.2692213547	-2.8487728698	 0.0396670346	 0.225643
H	-0.8465640981	-2.5729734396	 0.0040466939	 0.120434
