16
C1OC2C11NC22COC12	C1O[CH][C]2N[C]1[CH]OC2	
C	-0.0732837719	 1.1053179837	 0.1240204956	-0.138685
O	 1.3436654904	 1.349623593	-0.3588440744	-0.258083
C	 1.9236369168	 0.282386483	-0.9607558038	 0.060645
C	-0.2827478257	-0.3671266571	 0.1096426929	 0.013231
N	 0.8774175236	-1.0034108988	 0.7004368214	-0.346303
C	 1.7210731325	-0.971625075	-0.4832936458	-0.008476
C	 1.3652258603	-2.171025466	-1.2826847738	-0.09495
O	-0.1387915927	-2.1971972086	-1.3609252309	-0.253605
C	-0.749238749	-1.0607121613	-0.9566103169	 0.068705
H	-0.0933940027	 1.560645004	 1.1181690382	 0.123333
H	-0.727825237	 1.6617924607	-0.5491225227	 0.128316
H	 2.4881456461	 0.529692546	-1.855617391	 0.116149
H	 1.2666924861	-0.3979971169	 1.4171184643	 0.232567
H	 1.729899011	-2.1493311494	-2.3125732764	 0.115683
H	 1.6288530259	-3.1136795035	-0.8009511447	 0.129109
H	-1.5529161536	-0.7221043439	-1.6035128821	 0.112364
