17
OC1C=CC2OCC1O2	O[C@H]1C=C[C@@H]2OC[C@H]1O2	
O	 0.0758444725	 1.4281857021	-0.045866815	-0.439718
C	 0.0513250788	 0.0063364861	-0.0281706114	 0.112353
C	 0.8124387806	-0.5369039345	 1.1644814161	-0.136268
C	 0.1696346661	-1.1656889366	 2.1477544125	-0.050138
C	-1.3291224076	-1.3797900251	 2.0291734832	 0.132392
O	-1.6030567123	-2.5283080804	 1.2353705635	-0.257722
C	-1.4693412388	-2.078524782	-0.1154564124	-0.108064
C	-1.3882848108	-0.532667739	 0.0035140312	-0.004105
O	-1.9125569095	-0.3048409018	 1.3189109925	-0.258248
H	-0.3613794541	 1.7129493832	 0.7660509994	 0.28578
H	 0.5331748837	-0.3023580854	-0.9634600676	 0.094299
H	 1.8809448464	-0.3465815804	 1.2020597484	 0.105267
H	 0.6813576257	-1.5725529958	 3.0141017821	 0.104212
H	-1.8345490632	-1.4912467346	 2.9901426428	 0.097235
H	-0.5729174828	-2.5025692577	-0.5835979744	 0.107367
H	-2.3515431496	-2.4033780618	-0.6737938523	 0.118335
H	-2.0125622152	 0.0020557937	-0.7137184287	 0.097022
