16
CC1=NC(=N)N=C(C)O1	CC1=N[C@H]([NH])N=C(C)O1	
C	 0.012772631	 1.4649390769	 0.0985500255	-0.47203
C	-0.0297543071	-0.0174995697	-0.0608873503	 0.390858
N	 0.1019801943	-0.6180264372	-1.1686279659	-0.282636
C	 0.0411853159	-2.0267658104	-1.1792464008	 0.352838
N	 0.1723510173	-2.63901909	-2.2859906342	-0.494877
N	-0.1646056958	-2.7075291418	 0.0485493579	-0.32867
C	-0.2856678566	-2.0186703849	 1.1079200645	 0.394632
C	-0.5052024233	-2.6025278456	 2.4634841755	-0.47248
O	-0.2311346304	-0.6465509919	 1.1523169312	-0.246705
H	 0.8183949977	 1.7484106645	 0.7835763708	 0.151499
H	 0.1726157543	 1.9271965123	-0.874191759	 0.16489
H	-0.9250622984	 1.825335469	 0.5335749721	 0.151519
H	 0.1020831655	-3.6419263788	-2.104948976	 0.224216
H	-0.5426570821	-3.6882013128	 2.3889796699	 0.16054
H	 0.3028240208	-2.3026301621	 3.1385276752	 0.153209
H	-1.4405250332	-2.2253732677	 2.8894404336	 0.153198
