19
CC(C)(O)C(=O)C(N)=N	CC(C)(O)C(=O)C(=N)N	
C	-0.0321586617	 1.4833721233	 0.0029263105	-0.430187
C	-0.0085854025	-0.0588461444	 0.0856093585	 0.246471
C	 0.784496338	-0.5280592163	 1.3045945757	-0.392351
O	-1.3174077288	-0.5855703845	 0.2188290878	-0.468495
C	 0.6492298749	-0.596465181	-1.200729419	 0.359197
O	 1.795173939	-0.987038581	-1.2458677615	-0.332569
C	-0.166715899	-0.614719655	-2.5050215831	 0.304687
N	 0.5791995167	-1.0313048709	-3.5560459838	-0.526677
N	-1.39377179	-0.2320428289	-2.4890884466	-0.548757
H	 0.9785287498	 1.8978643887	-0.0737765738	 0.116987
H	-0.6166277404	 1.8161002607	-0.8579802175	 0.132368
H	-0.5013607314	 1.8697528639	 0.9123538186	 0.127762
H	 0.3059160452	-0.1384753636	 2.2065923687	 0.118603
H	 0.7867651109	-1.6193299115	 1.3580444933	 0.122899
H	 1.8179814619	-0.1799510994	 1.2642292955	 0.12288
H	-1.7749905533	-0.3868210992	-0.618419802	 0.298051
H	 1.5108264698	-1.3599942365	-3.3531511172	 0.277785
H	 0.1659341949	-1.2191924082	-4.4521869881	 0.258756
H	-1.831080154	-0.2724201661	-3.410588066	 0.21259
