18
CC1N2C3C4=CCC13C24	C[C@@H]1N2[CH][C]3[CH]C[C]1[C@@H]23	
C	 4.9987597733	 5.9140498495	-2.7860493482	-0.391045
C	 4.2018206647	 4.6188190102	-2.9114970398	 0.03791
N	 3.2021896319	 4.5057342265	-1.7340964927	-0.186311
C	 2.4260045198	 3.3103061345	-2.084556997	-0.067953
C	 3.2703380936	 2.3917904263	-1.5497544714	 0.060441
C	 4.0002261792	 1.2754552735	-2.2357536734	-0.22676
C	 5.0202686005	 2.0023085372	-3.0649061801	-0.258567
C	 4.9969187053	 3.4007738293	-2.4508239141	 0.033005
C	 4.1891159049	 3.4678102542	-1.1168293668	-0.033899
H	 4.3236012879	 6.7704000111	-2.8700785552	 0.128119
H	 5.7553274387	 5.9752316323	-3.5739495584	 0.119002
H	 5.505273103	 5.9708151566	-1.818143256	 0.127739
H	 3.7044540154	 4.5771828723	-3.8862743436	 0.081244
H	 1.6200765318	 3.2927368773	-2.8131965033	 0.109373
H	 4.316418082	 0.4066362386	-1.6552826731	 0.102469
H	 4.7676304439	 2.1019370205	-4.1259630546	 0.143165
H	 5.9907848047	 1.489966325	-3.0147693652	 0.136975
H	 4.6388089592	 3.651954655	-0.1418384272	 0.085093
