14
[NH3+]CC1=C([N-]N=N1)C#N	NCc1c(nn[nH]1)C#N	
N	 0.061943496	 1.9062102034	 0.0234002177	-0.524953
H	-0.1316383625	 1.8964223297	-0.9719541806	 0.248954
H	 1.904448785	 1.4634143301	 1.7136536801	 0.29502
H	-0.3301335842	 2.7697202627	 0.3871453034	 0.246583
C	-0.571720198	 0.7508621911	 0.6693197889	-0.298263
C	 0.0450595524	 0.5273896553	 2.0139789045	 0.286065
C	-0.3705698044	-0.0923868905	 3.1798918831	 0.127824
N	 0.6403483707	-0.0177831256	 4.1078788217	-0.252375
N	 1.6409241413	 0.6123008826	 3.581799438	-0.102535
N	 1.288726955	 0.939591866	 2.3190184413	-0.202998
C	-1.6206230323	-0.7107124771	 3.4300735069	 0.231047
N	-2.6562442438	-1.2022732085	 3.5916365334	-0.343414
H	-1.6629348728	 0.8185572473	 0.7855320889	 0.138176
H	-0.3835868425	-0.1302344167	 0.0434568526	 0.15087
