18
C1C2C3CN2CCN13	C1[C@H]2[C@@H]3CN2CCN13	
C	 0.0335159109	 1.5207218522	-0.1933886315	-0.190619
C	 1.5326098872	 1.4583266979	 0.0525163385	 0.00708
C	 1.2890503647	 0.1309522174	 0.8104291931	 0.00708
C	 2.4928623659	-0.4371542834	 0.0757613876	-0.190619
N	 2.3164739704	 0.6266605691	-0.9766443175	-0.126809
C	 1.3962341139	 0.0703837674	-1.9861663567	-0.180069
C	 0.1843834922	-0.6065546029	-1.272120133	-0.180069
N	-0.0373139256	 0.0335147049	 0.0380629737	-0.12681
H	-0.4836625537	 2.0562195671	 0.6105202105	 0.106204
H	-0.3570202404	 1.8666049045	-1.1555934626	 0.102892
H	 2.1084806464	 2.3151674005	 0.4108147195	 0.071063
H	 1.145399216	 0.0143438829	 1.8874376356	 0.071063
H	 3.4203862912	-0.2698753467	 0.6345264404	 0.106204
H	 2.4832298119	-1.4683874863	-0.2909214083	 0.102892
H	 1.0746790963	 0.8788872846	-2.6493099711	 0.107005
H	 1.9502296833	-0.644951537	-2.6038460288	 0.103253
H	-0.7335374812	-0.5144893451	-1.8629580341	 0.103253
H	 0.3536663903	-1.6758425871	-1.1146354953	 0.107005
