20
CC1(C)CC1(CO)C#N	CC1(C)C[C@]1(CO)C#N	
C	-0.0598020197	 1.516072947	-0.0021732434	-0.456692
C	 0.0359135047	-6.8735*^-6	 0.0185750417	 0.278005
C	-1.1668731259	-0.6826329968	-0.6083926822	-0.459274
C	 1.379974432	-0.6515878078	-0.1426300719	-0.345171
C	 0.7036385206	-0.6878753731	 1.2237456089	 0.107297
C	 1.3152167335	 0.0887622929	 2.3915973573	-0.136149
O	 2.3862053825	-0.6052563933	 2.9972274017	-0.413422
C	 0.1689798736	-1.9520511797	 1.6652506974	 0.238557
N	-0.2341874722	-2.9539256773	 2.0836920193	-0.363815
H	 0.8454195899	 2.0067293692	 0.3606581552	 0.124139
H	-0.222403569	 1.8553393785	-1.0312098699	 0.127506
H	-0.9051745632	 1.869429173	 0.5982321056	 0.127515
H	-1.2613016779	-0.3815563684	-1.6575020089	 0.121676
H	-1.0873147616	-1.7715544651	-0.5742643896	 0.14109
H	-2.0916422622	-0.3989303595	-0.0942852297	 0.127422
H	 1.4452742053	-1.5802289492	-0.6984390343	 0.133373
H	 2.2619954838	-0.0230878204	-0.2103291195	 0.128846
H	 1.7359243844	 1.0288178546	 2.0304342683	 0.114231
H	 0.5277193811	 0.3321933142	 3.1203026423	 0.106733
H	 2.0371308605	-1.4172719653	 3.3823928417	 0.298131
