15
N1C=CC2=C1N=CC=C2	[nH]1ccc2c1nccc2	
N	-0.0271573516	 1.3262247477	 0.0098225303	-0.360191
C	 1.2521888846	 1.8430942218	 0.0001432542	-0.038518
C	 2.1658545788	 0.8238522426	-0.0142137579	-0.315285
C	 1.4214121091	-0.4007187629	-0.0136659495	 0.28083
C	 0.0428876457	-0.0452688538	 0.0016753582	 0.375359
N	-0.9998990571	-0.868121946	 0.0073414532	-0.363736
C	-0.6792367713	-2.1629419011	-0.0028249405	-0.037781
C	 0.6373892494	-2.6518437895	-0.0182937159	-0.112281
C	 1.7085712653	-1.7686780373	-0.0239074488	-0.223723
H	-0.8852815323	 1.8500550878	 0.0210517967	 0.267222
H	 1.4062011588	 2.9110591109	 0.0044224253	 0.130076
H	 3.2388723329	 0.9359265103	-0.0240201024	 0.103364
H	-1.5129917327	-2.8605253177	 0.0014928673	 0.101231
H	 0.803209358	-3.7231185492	-0.0257332714	 0.093079
H	 2.7322349726	-2.1294900436	-0.035819889	 0.100353
