20
CCC(O)CCC#C	CC[C@@H](O)CCC#C	
C	 0.0323912391	 1.5786932865	 0.094628321	-0.38091
C	-0.0065440565	 0.0518330555	-0.0019403778	-0.193717
C	 0.6968200236	-0.4930654155	-1.2510756996	 0.136367
O	 2.0621406883	-0.0757625044	-1.3082796308	-0.428549
C	 0.576577855	-2.0171716621	-1.3661744818	-0.196769
C	 1.2399851759	-2.564585685	-2.6452719352	-0.355882
C	 1.196363842	-4.0183403309	-2.7319879868	 0.293027
C	 1.1476992116	-5.2187849733	-2.7773152241	-0.441805
H	 1.0629012991	 1.941211807	 0.056450013	 0.127208
H	-0.5106729045	 2.0386965717	-0.738291448	 0.115173
H	-0.4240395117	 1.928987289	 1.0250882764	 0.110217
H	 0.4670444025	-0.3932144556	 0.8859537564	 0.086262
H	-1.0451249453	-0.3016316478	 0.0007206514	 0.098863
H	 0.2426924698	-0.0339179415	-2.1401820885	 0.085624
H	 2.502239465	-0.4169291314	-0.5208058267	 0.277503
H	 1.0414345759	-2.4862787244	-0.4885054881	 0.098476
H	-0.4804591941	-2.3053245809	-1.3474738782	 0.108952
H	 0.7462891574	-2.1298831973	-3.5246405149	 0.127129
H	 2.2775420713	-2.2143533289	-2.6792126312	 0.141641
H	 1.1121746559	-6.2783793106	-2.8314368063	 0.19119
