15
CC1=C(F)C=NNC1=N	CC1=C(NN=C[C@@H]1F)[NH]	
C	-0.0565795924	 1.5430529699	 0.0210095581	-0.486482
C	-0.0225599957	 0.0493861932	-0.0183793073	 0.115301
C	-0.0919217314	-0.6850769769	-1.1511838497	 0.204801
F	-0.1989406631	-0.1041578896	-2.3486886081	-0.069452
C	-0.0556824412	-2.1153113801	-1.1428091199	-0.097163
N	 0.046300592	-2.7896027407	-0.0397724147	-0.18092
N	 0.1158416749	-2.0731551761	 1.0915687798	-0.304545
C	 0.0932115947	-0.6782705649	 1.2443153628	 0.326256
N	 0.1648461384	-0.0602195764	 2.367287147	-0.549483
H	 0.8482049076	 1.9257419586	 0.5039727617	 0.153873
H	-0.1447020931	 1.964388625	-0.9807146685	 0.129814
H	-0.894033789	 1.8825393754	 0.6389067845	 0.15387
H	-0.1133148437	-2.6738545219	-2.0690552175	 0.139455
H	 0.1943779695	-2.6389838783	 1.9238200535	 0.265732
H	 0.2418221125	-0.7047297873	 3.1549340085	 0.198944
