15
[NH3+]C(CC([O-])=O)C#C	N[C@@H](CC(=O)O)C#C	
N	 0.0518881058	 0.8292733653	 0.1626598554	-0.517619
H	 0.1626699346	-0.1636175823	 0.3446419119	 0.255033
H	 1.357697568	 2.0236365925	 0.3811399308	 0.315277
H	-0.4355202449	 0.9100011396	-0.7265111765	 0.250591
C	-0.7647464399	 1.4575566697	 1.230460259	-0.203804
C	-0.6880543552	 2.9949051601	 1.0903442573	-0.320291
C	 0.7163815068	 3.5986121233	 1.2412419677	 0.392646
O	 1.7243141751	 2.8688277896	 0.7458577544	-0.369715
O	 0.8938738766	 4.671957888	 1.7526884814	-0.327887
C	-2.1521205911	 0.9916185586	 1.2382545103	 0.31552
C	-3.2923571375	 0.6120987277	 1.207019781	-0.421003
H	-0.2929134492	 1.1776914404	 2.1805113111	 0.137402
H	-1.0792171991	 3.2793457165	 0.104849666	 0.134784
H	-1.3274462052	 3.471661899	 1.8337129709	 0.151045
H	-4.2992780947	 0.273161072	 1.194273449	 0.208021
