10
N=C1ON=C(O1)N(=O)=O	[NH][C@H]1ON=C(O1)N(=O)=O	
N	-0.2285499617	 1.2405995677	 0.010833909	-0.550066
C	-0.0485376918	 0.0108673571	 0.002966544	 0.537816
O	 1.1225840063	-0.7220233492	-0.0066987721	-0.230783
N	 0.8091894647	-2.0928482448	-0.0130003303	-0.129761
C	-0.4662151983	-2.0964176409	-0.0069621827	 0.554073
O	-1.0832164422	-0.9120490675	 0.0026697577	-0.178705
N	-1.2837534326	-3.3107489389	-0.009957964	 0.357875
O	-0.6755372708	-4.3633511066	-0.0188357032	-0.311405
O	-2.4883689415	-3.1347035016	-0.0034780499	-0.313922
H	 0.6448076178	 1.7603324848	 0.0096784115	 0.264879
