16
CN=C(OC=O)C(N)=N	CN=C(OC=O)C(=N)N	
C	 0.5896448244	 1.4265851648	 0.5855450993	-0.30369
N	 0.138125132	 0.1119732507	 0.1722158668	-0.291404
C	 0.3127790792	-0.3729434287	-0.9702000657	 0.43257
O	-0.1752364056	-1.6493859068	-1.25945186	-0.245057
C	-0.4341033394	-2.5279507092	-0.2395646983	 0.172772
O	-0.9362213592	-3.585011148	-0.4634563121	-0.260446
C	 0.9762487539	 0.2027389295	-2.1971587574	 0.269572
N	 0.6638680306	-0.4366147906	-3.368906696	-0.539201
N	 1.7203085676	 1.2337039027	-2.0418647994	-0.519216
H	 1.6705325097	 1.4211154149	 0.7590902471	 0.14586
H	 0.3996059917	 2.1945188906	-0.1687162745	 0.145932
H	 0.0842658664	 1.6808317441	 1.5208643228	 0.116754
H	-0.1184723574	-2.1396946821	 0.7359550392	 0.132556
H	 0.250264338	-1.3528490437	-3.3205901554	 0.279361
H	 1.2066669761	-0.2198225203	-4.1885545545	 0.254323
H	 2.114082482	 1.5422425324	-2.9329843318	 0.209316
