14
NC1=NCC(=O)C1C#N	NC1=NCC(=O)[C@H]1C#N	
N	 0.0058215793	 1.3135425229	 0.0102565665	-0.561712
C	-0.0334453075	-0.0498869661	-0.0017224223	 0.391471
N	-1.1019250705	-0.7445972825	 0.1041948432	-0.284458
C	-0.7843273486	-2.161468977	 0.1114881515	-0.272012
C	 0.7215307651	-2.2950077194	-0.141378407	 0.389423
O	 1.3599591662	-3.2807007599	-0.3565688703	-0.27296
C	 1.2768487767	-0.8351180334	-0.0518241354	-0.370808
C	 2.1824583457	-0.4495139497	-1.1189848962	 0.285229
N	 2.880933952	-0.1027865195	-1.9725789019	-0.319174
H	 0.7868274601	 1.7591307387	-0.4467140658	 0.275014
H	-0.8855377567	 1.7708343305	-0.1175367528	 0.269215
H	-1.0371041221	-2.633556454	 1.071517252	 0.144297
H	-1.343908404	-2.7079944907	-0.6574112161	 0.150225
H	 1.8054607443	-0.7428074498	 0.9071619746	 0.17625
