17
CN1C(=N)N=CN=C1C	CN1C(=NC=N[C@H]1C)[NH]	
C	-0.04306553	 1.4658725844	-0.0357536942	-0.332178
N	-0.0159426392	 0.0059892591	 0.0298136315	-0.125713
C	-0.1103524748	-0.6697356024	-1.223281998	 0.414791
N	-0.2085337738	 0.0500884904	-2.2730570733	-0.574614
N	-0.0865496244	-2.0548693474	-1.1842817294	-0.304438
C	 0.0185271245	-2.6182910791	-0.0228283333	 0.065138
N	 0.1114076005	-2.0154323022	 1.199906936	-0.331093
C	 0.0903250497	-0.7048623941	 1.1796401128	 0.41482
C	 0.1895630282	 0.0104652244	 2.4982390441	-0.496448
H	 0.0340829096	 1.8922466688	 0.9606855035	 0.131409
H	 0.7810371566	 1.8138516895	-0.6624255587	 0.163122
H	-0.9697678017	 1.7879745536	-0.5157939341	 0.163084
H	-0.2663675633	-0.5717393381	-3.0778304209	 0.226655
H	 0.0366631863	-3.7070361204	 0.0010715494	 0.121053
H	 0.265454671	-0.745722128	 3.2777700238	 0.162679
H	 1.0707561758	 0.6584962452	 2.5404725446	 0.150873
H	-0.690930515	 0.6328116764	 2.6870195762	 0.150862
