19
OC1CCOCC1C=O	O[C@H]1CCOC[C@H]1C=O	
O	 0.1211075544	 1.4536712667	 0.0538633158	-0.439648
C	 0.1007368664	 0.0331161294	 0.0471281822	 0.105142
C	 0.8197075858	-0.5907482949	 1.2475785913	-0.245386
C	 0.6151904457	-2.1101363282	 1.2358892631	-0.072753
O	-0.7584327904	-2.4446742251	 1.2433400476	-0.24171
C	-1.4492764484	-1.9486853622	 0.1099565002	-0.092574
C	-1.3674948493	-0.4182080634	 0.0217954178	-0.120761
C	-2.223132027	 0.2491913184	 1.098733666	 0.160914
O	-3.218124151	-0.2502692942	 1.559904126	-0.256431
H	 1.033572606	 1.741481596	 0.1598737278	 0.28512
H	 0.5796603338	-0.34408068	-0.8727723885	 0.070282
H	 1.8918519541	-0.3569304683	 1.2182069491	 0.089867
H	 0.4129479779	-0.1730238712	 2.1762594345	 0.11836
H	 1.1111556857	-2.547851726	 0.3513351834	 0.086529
H	 1.0507705992	-2.5722800637	 2.1258119082	 0.114756
H	-1.0443434806	-2.3981801443	-0.811988981	 0.08575
H	-2.4903076915	-2.2537244822	 0.2274584311	 0.135615
H	-1.8044872657	-0.0889027772	-0.9330233202	 0.111754
H	-1.8896991651	 1.2604783904	 1.4040054457	 0.105172
