15
N=CN1CC1(C=O)C#C	[NH][CH]N1C[C@]1(C=O)C#C	
N	-0.5372316746	 1.1624276991	 0.7990199712	-0.407827
C	-0.2056201651	 0.080661159	 0.2282114689	 0.057611
N	-1.0895217998	-0.5954228179	-0.6217778592	-0.095709
C	-2.4874787174	-0.6615341874	-0.3237449696	-0.248298
C	-1.633325138	-1.9235047593	-0.2511204704	-0.016548
C	-1.7216581228	-2.8559929295	-1.4329094098	 0.127444
O	-1.7388849333	-4.0531962357	-1.3633046194	-0.235784
C	-1.3464559151	-2.4972029856	 1.0335386103	 0.292516
C	-1.0802389796	-2.9921831712	 2.0951997107	-0.419798
H	 0.2548970627	 1.5524998716	 1.3083667022	 0.234367
H	 0.774974436	-0.4032800178	 0.2707353052	 0.114993
H	-2.8185662378	-0.2551218276	 0.6272383448	 0.161174
H	-3.1659283722	-0.5351394181	-1.1632504066	 0.136077
H	-1.7777713062	-2.3044755251	-2.3967631156	 0.092797
H	-0.8576000967	-3.4330019944	 3.0357500172	 0.206985
