18
COC1C[NH2+]C1C([O-])=O	CO[C@H]1CN[C@H]1C(=O)O	
C	-0.4853201921	 1.2074841197	-0.2837728511	-0.263538
O	 0.3600861927	 0.1276668835	 0.0974658229	-0.237487
C	 0.9558526611	-0.5307292308	-0.9748589512	 0.136698
C	 2.0284103098	-1.5442793311	-0.5180094185	-0.196582
N	 1.1867832638	-2.6792847039	-0.9926370807	-0.342395
H	 1.6396232997	-3.3056973747	-1.6475109929	 0.235674
H	-0.345916801	-3.2756933206	-0.0333760994	 0.304721
C	 0.183142057	-1.7591799094	-1.5893284215	-0.19198
C	-1.2253280286	-2.000691317	-1.0432327062	 0.454961
O	-1.2775488913	-2.9703980944	-0.1277877495	-0.362968
O	-2.185914388	-1.3716504949	-1.4059491322	-0.352302
H	 0.08271385	 1.966847092	-0.8418968071	 0.103774
H	-1.3286072994	 0.8618653437	-0.8902829432	 0.153972
H	-0.8603547808	 1.6517428078	 0.6402489174	 0.132673
H	 1.294430828	 0.183674855	-1.7363214679	 0.078876
H	 2.9886296813	-1.4433892626	-1.0329881721	 0.112219
H	 2.1949912667	-1.5526693078	 0.562439743	 0.130314
H	 0.1368384609	-1.7456632144	-2.6821440697	 0.103371
