19
CC12C3OC1(C)CC23O	C[C@@]12[C@H]3O[C@]1(C)C[C@@]23O	
C	-0.175329609	 1.5465649167	-0.0760719117	-0.532411
C	-0.0483168898	 0.0626209566	 0.0264038808	 0.186952
C	 0.076954108	-1.0625518481	-0.9522168247	-0.036521
O	 1.2266374932	-1.660295252	-0.359441338	-0.334577
C	 0.867752826	-0.9333832115	 0.8631726206	 0.373077
C	 2.0305133719	-0.6146771869	 1.7501462899	-0.501688
C	-0.4138406378	-1.671795523	 1.348485114	-0.337323
C	-1.0565850938	-1.072671237	 0.09890524	 0.285004
O	-2.3929427853	-0.9641346458	-0.2231150576	-0.459294
H	 0.756239157	 2.0106040891	-0.4182721774	 0.12513
H	-0.9638482941	 1.8077306816	-0.7893673695	 0.136134
H	-0.4437559492	 1.9967986696	 0.8865761782	 0.123014
H	-0.0725930592	-1.1176477362	-2.0235896892	 0.103175
H	 2.7823468211	-0.031392276	 1.2108715163	 0.130441
H	 1.7034895655	-0.0448384331	 2.6250255383	 0.122939
H	 2.5009100738	-1.5403466213	 2.0993592773	 0.133622
H	-0.3349289094	-2.7594894912	 1.4524694287	 0.091004
H	-0.821831586	-1.2213456126	 2.2575289374	 0.102747
H	-2.6770318331	-1.7888246089	-0.6334170034	 0.288576
