18
[NH3+]C1CC1OCC([O-])=O	N[C@H]1C[C@H]1OCC(=O)O	
N	 0.3564081468	-0.026755377	 0.534933787	-0.522097
H	-0.1547958721	-0.8467777909	 0.845106245	 0.254165
H	 1.8970157794	-0.1792620327	 1.3647854448	 0.342142
H	 0.2428341719	 0.0429308396	-0.4704805795	 0.251902
C	-0.1429195428	 1.1666506683	 1.1983344755	-0.024413
C	-1.4101481209	 1.122203905	 2.0278049861	-0.345359
C	-0.0649747222	 1.1420260494	 2.7021326662	 0.127551
O	 0.3474399304	-0.0663730751	 3.2726268159	-0.256154
C	 1.6098118035	-0.0221063579	 3.9137477551	-0.212483
C	 2.8901852109	 0.0543219051	 3.0593908533	 0.348979
O	 2.8153971109	-0.0998378884	 1.7439576004	-0.378084
O	 3.9395024548	 0.2198534712	 3.6296414886	-0.330147
H	 0.1135130246	 2.0799781218	 0.6728201762	 0.113189
H	-2.035193496	 2.0057836503	 2.0952564366	 0.126157
H	-1.9505884694	 0.1807437774	 2.0558441894	 0.125345
H	 0.2390703205	 2.0328396928	 3.248641987	 0.103692
H	 1.6611742559	 0.8135135452	 4.6237475271	 0.129903
H	 1.681080374	-0.9459600441	 4.4952792754	 0.145713
