16
C1C2NC2C2=CC=NN12	C1[C@H]2N[C@H]2c2ccnn12	
C	-0.0530101222	 1.4328896355	 0.0205723177	-0.171638
C	 1.413226668	 1.8652433599	-0.0295562976	-0.037337
N	 2.1903327204	 1.4667818261	 1.1561420917	-0.325112
C	 2.2779061292	 0.6448773883	-0.0838281409	-0.240172
C	 1.3436366714	-0.4996073922	-0.0585157558	 0.488012
C	 1.2361976363	-1.8756147258	-0.0451204532	-0.401214
C	-0.157458485	-2.1034563878	 0.049256869	 0.013419
N	-0.8627183878	-0.9677972432	 0.0937362409	-0.294532
N	 0.076614023	-0.018511038	 0.0158752259	 0.040299
H	-0.5590318685	 1.7765170352	 0.9269723257	 0.141967
H	-0.6127168617	 1.777946218	-0.85525493	 0.126721
H	 1.6714037937	 2.7746305308	-0.5596546401	 0.103722
H	 3.0179656063	 2.0568879258	 1.2213757964	 0.235383
H	 3.2065498941	 0.6112130495	-0.6401576965	 0.107219
H	 2.027770722	-2.6055281383	-0.0828158072	 0.104209
H	-0.6748989392	-3.0512076036	 0.085691554	 0.109052
