13
CC1=CC(F)=NOC1=O	Cc1cc(F)noc1=O	
C	-0.0402114632	 1.4998660918	-0.0164668729	-0.476839
C	-0.0593743608	 0.0062894016	 0.0036872241	 0.146927
C	-1.1563319895	-0.7622019897	-0.1427936249	-0.305483
C	-0.9953301827	-2.1844529549	-0.0976799074	 0.367404
F	-2.0846478726	-2.9230078499	-0.2433054593	-0.05065
N	 0.0981251206	-2.8299809327	 0.0697235756	-0.133844
O	 1.2335446196	-2.0497144119	 0.22141816	-0.257373
C	 1.2368205292	-0.6638079675	 0.2013480909	 0.428539
O	 2.2899666521	-0.1031463808	 0.3453604231	-0.321362
H	 0.6240579883	 1.8575543522	-0.8099281085	 0.164376
H	-1.0400961921	 1.9111401042	-0.1675933232	 0.131699
H	 0.373766578	 1.8843774859	 0.9213222348	 0.164396
H	-2.149616937	-0.3532149083	-0.2924446425	 0.142209
