17
CN1C(=N)OC(N)=C1N	CN1[C@H]([NH])OC(=C1N)N	
C	-0.0370595194	 1.4510281666	-0.0232524506	-0.34272
N	 0.0549340603	 0.0107153761	 0.0330007818	-0.122866
C	 0.120910818	-0.7955205617	-1.0893295824	 0.448488
N	 0.1731224709	-0.3736461019	-2.2885156545	-0.620936
O	 0.1109115247	-2.0923039302	-0.6528017	-0.250491
C	 0.0710655763	-2.0781441184	 0.7652539059	 0.172459
N	 0.0459759263	-3.2575495805	 1.4946346176	-0.603318
C	 0.0259426416	-0.798685212	 1.1686491126	 0.272382
N	-0.1340037911	-0.2537129647	 2.441198149	-0.608449
H	 0.9504373365	 1.9294868389	-0.0071750979	 0.126663
H	-0.5303496344	 1.7238037193	-0.9579706743	 0.169403
H	-0.6241297492	 1.8075657236	 0.8265593865	 0.140697
H	 0.1912771306	-1.1550325084	-2.9381507543	 0.217953
H	-0.7815279368	-3.8209720991	 1.3191104237	 0.245683
H	 0.8618106221	-3.8418748071	 1.3357805895	 0.245099
H	-0.1666779838	-1.000305659	 3.1264112755	 0.260377
H	 0.6086622274	 0.3927457084	 2.6898600121	 0.249576
