17
CCOC1=COC(=N)N1	CCOC1=CO[C@H]([NH])N1	
C	-0.6772738463	 0.9155319159	 0.8052962784	-0.382825
C	 0.1751337153	 0.119582182	-0.1696467165	-0.076578
O	-0.6327157194	-0.6810170416	-1.0663465116	-0.279225
C	-1.1533794114	-1.7990502982	-0.5392705855	 0.356296
C	-2.4164222659	-2.1312675288	-0.2509190482	-0.156804
O	-2.4534289265	-3.44746301	 0.202808132	-0.216353
C	-1.1684567937	-3.9500926217	 0.1820946577	 0.477807
N	-0.7982081887	-5.1267476281	 0.4660801344	-0.600134
N	-0.3497673449	-2.904581341	-0.2132821637	-0.402129
H	-0.0354857007	 1.5187776209	 1.4551300645	 0.124912
H	-1.3547153647	 1.5848859611	 0.2676724837	 0.131462
H	-1.2731360412	 0.2502289893	 1.4365959314	 0.136512
H	 0.7434784368	 0.7772482613	-0.831262248	 0.121755
H	 0.8813941875	-0.5305747298	 0.3603629725	 0.1149
H	-3.3457557647	-1.594991918	-0.2996283191	 0.149943
H	-1.5986850787	-5.7023395512	 0.7143298284	 0.225081
H	 0.5617760073	-3.0808630518	-0.6008737403	 0.275378
