14
N=C1C=CNC(C=O)=N1	[NH]C1=N[C@H](NC=C1)C=O	
N	-0.1204630973	 1.3415880085	 0.008681692	-0.534338
C	-0.0460180847	 0.0638606535	 0.0014786853	 0.323412
C	-1.2559714773	-0.7610136846	 0.003502844	-0.119846
C	-1.1681938717	-2.10088234	-0.0041250544	-0.013427
N	 0.0781281921	-2.7018639485	-0.0139605447	-0.361163
C	 1.2002488082	-1.9101092235	-0.0156922795	 0.299492
C	 2.49947102	-2.6757763008	-0.0266847995	 0.112179
O	 3.5852616713	-2.1712533652	-0.0297716621	-0.208993
N	 1.1921770685	-0.6260607415	-0.0087842122	-0.32766
H	 0.8272719686	 1.7246112724	 0.0056871002	 0.21953
H	-2.2165619359	-0.2637674539	 0.0112675865	 0.127872
H	-2.0200438486	-2.7687444007	-0.0031640024	 0.140206
H	 0.1653524085	-3.7053372759	-0.0198055878	 0.269072
H	 2.3683072783	-3.7850138897	-0.0319036555	 0.073664
