16
CC12OC1C1CN1C2=O	C[C@]12O[C@H]1[C@H]1CN1C2=O	
C	-0.056510745	 1.5542907266	 0.0448415556	-0.496865
C	 0.1645872688	 0.0750924451	 0.0229740881	 0.291386
O	-0.7288538099	-0.7600228002	 0.8084583286	-0.281915
C	 0.6721555164	-0.8114283546	 1.0829579285	-0.048783
C	 1.37597464	-1.9768755991	 0.4212462531	-0.05738
C	 0.5679379552	-2.9679982586	-0.3361773256	-0.251101
N	 1.2144528504	-1.8336048514	-1.0353551345	-0.140615
C	 0.4229253651	-0.666031638	-1.2905132561	 0.362006
O	 0.0456154464	-0.3222047705	-2.3762796807	-0.312118
H	 0.8571056903	 2.0842866387	-0.2416879868	 0.136752
H	-0.8371394409	 1.8207750271	-0.6736995264	 0.154472
H	-0.3613275715	 1.8808396254	 1.0416897926	 0.134113
H	 0.9835919759	-0.455945824	 2.0603699118	 0.110788
H	 2.3751543802	-2.2240566817	 0.767277684	 0.109077
H	 0.9919812227	-3.9388053703	-0.5739887151	 0.133723
H	-0.5088516441	-2.9327494443	-0.216831677	 0.15646
