12
N=C1NC2=C(O1)N=NN2	[NH][C@@H]1N[C@H]2C(=N[N]N2)O1	
N	-0.0624360538	 1.2766322179	-0.0191958016	-0.575483
C	-0.009452997	 0.0206468704	 0.0128369529	 0.454356
N	-1.139113106	-0.825113768	 0.053086794	-0.477221
C	-0.6713251508	-2.1170174977	-0.0296493118	 0.437566
C	 0.6899734135	-2.076233809	-0.0203890861	 0.354767
O	 1.1374031211	-0.777314417	 0.0179478196	-0.24666
N	 1.2214565549	-3.3003703339	-0.0085307656	-0.283676
N	 0.2193391634	-4.1527725509	-0.0179137783	-0.137935
N	-0.9604027015	-3.4247992948	-0.0122568643	-0.346011
H	 0.8652429271	 1.6902912106	-0.0476271751	 0.24418
H	-2.0498366311	-0.4618078196	-0.1689613777	 0.287062
H	-1.8361902498	-3.919350998	-0.036307126	 0.289055
