19
CC1C2OCC2C1C=O	C[C@H]1[C@H]2OC[C@H]2[C@H]1C=O	
C	 0.2703834001	 1.6240528967	-0.3545184224	-0.409104
C	 0.0869715863	 0.1408515243	-0.0639622509	-0.025102
C	 0.6167514934	-0.8583448457	-1.1293736175	 0.11412
O	 1.765907003	-0.379672444	-1.8473620418	-0.28967
C	 2.6729078307	-1.102898639	-0.9724416898	-0.088641
C	 1.5117628098	-1.5746153411	-0.0782199278	-0.102741
C	 1.0211581308	-0.5740893192	 0.9999039801	-0.125515
C	 2.0066807735	 0.2536979626	 1.7769724966	 0.144893
O	 3.1950659463	 0.0554117263	 1.8406743066	-0.250427
H	 1.3029635329	 1.8460652413	-0.635660052	 0.139231
H	-0.3689419691	 1.9273614338	-1.1903366076	 0.123028
H	 7.2763*^-6	 2.2391429832	 0.5095229869	 0.114084
H	-0.9632386628	-0.0683891159	 0.1628427867	 0.078367
H	-0.1135873576	-1.3426343451	-1.7840845908	 0.074894
H	 3.1661023382	-1.9195843728	-1.5140980093	 0.102018
H	 3.4281134155	-0.4584180513	-0.5191031875	 0.133532
H	 1.4589913146	-2.634688799	 0.1627694404	 0.082633
H	 0.3993633264	-1.0679841083	 1.7580803068	 0.105279
H	 1.5425005119	 1.0968840535	 2.3396596334	 0.079122
