17
C1C2OC11C=CC3C2C13	C1[C@H]2O[C]1[CH]C=CC=C2	
C	 0.0836194128	 2.0738766462	-0.1748013338	-0.305806
C	 1.3163748506	 1.2872293573	 0.3084159405	 0.038834
O	 0.4112657757	 0.5240725643	 1.2238227453	-0.292202
C	-0.543036552	 0.7767903666	 0.2225097592	 0.340496
C	-1.3008025698	-0.114762752	-0.4171162044	-0.265501
C	-1.2970908403	-0.0362531736	-1.8765693226	-0.109979
C	-0.1156262559	 0.1001476465	-2.5300617154	-0.091851
C	 1.8704859684	 0.488538891	-0.8561882169	-0.083222
C	 1.2635108852	 0.1026157323	-2.0041483132	-0.053978
H	-0.1717863235	 2.8578677429	 0.5426355728	 0.122912
H	 0.0307285795	 2.4271889029	-1.2002407675	 0.128236
H	 2.0937510184	 1.781456917	 0.8936416052	 0.088986
H	-1.5497443999	-1.0580289875	 0.0640937107	 0.109022
H	-2.19586263	-0.217947635	-2.4626187327	 0.094988
H	-0.1515380991	 0.0767708177	-3.6187472475	 0.089019
H	 2.9358104928	 0.2806562906	-0.7919309538	 0.093259
H	 1.951059107	-0.3282412972	-2.7335813759	 0.096787
