11
O=C1N=NOC=C1C#C	[O][C][C](C=O)C#C.N#N	
O	-0.2412703915	 0.2180356053	 0.6691150934	-0.160627
C	 0.6325660594	 0.9353745663	 0.4646205751	 0.513519
N	-2.4463565797	 2.478272494	-0.7777053936	-0.002925
N	-3.1317947376	 3.3358799129	-0.7382662395	-0.001216
O	 0.2034137486	 3.6967065673	 0.3755103359	-0.281259
C	 1.3058906844	 3.2332266234	 0.206346742	 0.126452
C	 1.6387913894	 1.7896211106	 0.2309207336	-0.335786
C	 2.9493416163	 1.2917302245	 0.0248460031	 0.247177
C	 4.0772872774	 0.9109772517	-0.1551949819	-0.416012
H	 2.1986096958	 3.8609828461	 0.0133446584	 0.10285
H	 5.0706245675	 0.570552758	-0.3139389464	 0.207826
