18
CC1[NH2+]C2C1C2C([O-])=O	C[C@H]1N[C@H]2[C@@H]1[C@H]2C(=O)O	
C	-0.0747672733	 1.5341387184	 0.3076126329	-0.411107
C	-0.0635105169	 0.0165336644	 0.2541959459	 0.040872
N	 0.760815756	-0.5454204416	-0.8857290169	-0.38457
H	-0.0578415258	-2.0674279834	-1.0984400896	 0.319693
H	 1.1063226717	 0.1867740187	-1.4965480991	 0.23498
C	 1.7812555618	-1.0047166161	 0.0944151628	-0.040098
C	 0.8944151055	-0.6333684333	 1.2610556575	-0.10172
C	 1.1787104738	-2.0982851092	 0.9317351598	-0.16812
C	 0.1673518234	-3.1265414215	 0.4715206491	 0.413509
O	-0.0727617941	-4.1013908514	 1.1358910813	-0.346865
O	-0.4322879285	-2.8995107664	-0.7046909297	-0.388709
H	 0.9436977561	 1.9362716056	 0.3446124796	 0.122358
H	-0.5842876668	 1.9500472843	-0.5681701126	 0.127975
H	-0.6079475109	 1.8803998786	 1.1990510363	 0.134232
H	-1.0862938185	-0.3742173773	 0.239476458	 0.104965
H	 2.843503628	-0.8971447875	-0.0875700055	 0.110166
H	 1.1337590272	-0.2302527932	 2.2367554881	 0.108123
H	 1.8673668514	-2.5326283092	 1.6487404721	 0.124318
