15
NC1=C(OC=N1)C1CO1	Nc1c(ocn1)[C@H]1CO1	
N	 0.1319557509	 1.4183771194	 0.3081251309	-0.600161
C	 0.0007162346	 0.0561401953	 0.0815916187	 0.174782
C	-1.1006553607	-0.6855681298	-0.2430922824	 0.313358
O	-0.664982095	-1.990046063	-0.4106503688	-0.182499
C	 0.6543238386	-1.9384487804	-0.187294844	 0.073504
N	 1.1180416029	-0.7650489206	 0.1060729526	-0.303048
C	-2.5113793172	-0.3682656333	-0.4355136849	-0.068526
C	-3.4879352065	-1.3183508955	-0.9876086033	-0.177176
O	-3.493502112	-1.0203720303	 0.4057738138	-0.237714
H	 1.0143395274	 1.6354134039	 0.7513241313	 0.259321
H	-0.6397651719	 1.8375159227	 0.807445147	 0.255045
H	 1.202096296	-2.8646212272	-0.2658647563	 0.152344
H	-2.7001902835	 0.6956046875	-0.5768559324	 0.099454
H	-4.336997072	-0.9422685002	-1.5580144224	 0.114768
H	-3.1564878918	-2.3210547087	-1.2504374801	 0.126548
