17
CNC1=C(C)OC(O)=N1	CNc1c(C)oc(O)n1	
C	 0.0046828908	 1.4744330504	-0.0566765955	-0.325609
N	-0.3679866423	 0.0854288272	-0.3050312342	-0.389649
C	 0.431039174	-0.6664458996	-1.15315813	 0.2418
C	 0.6991773599	-2.0005699528	-1.1422867058	 0.221035
C	 0.3547900175	-3.1581408104	-0.2852786362	-0.501551
O	 1.4812342215	-2.2477884563	-2.2880722178	-0.241698
C	 1.6190881195	-1.0400133797	-2.8519085789	 0.47081
O	 2.3435508765	-0.9636307327	-3.9686648639	-0.405617
N	 1.0376108824	-0.0578777299	-2.2553976262	-0.39062
H	 0.9517849852	 1.587049655	 0.493548534	 0.106434
H	 0.1073952113	 1.9892867829	-1.0125977138	 0.163263
H	-0.7927666048	 1.9546217197	 0.5163163994	 0.116383
H	-0.612856487	-0.414600889	 0.5377586432	 0.230148
H	-0.146728252	-2.808145839	 0.6222582261	 0.124479
H	-0.3226047334	-3.86859279	-0.7776454518	 0.132801
H	 1.2455267986	-3.7170477835	 0.0274324823	 0.132809
H	 2.6571312425	-1.8500036922	-4.184716961	 0.314782
