16
NC(=O)C1C=CCC1=O	NC(=O)[C@H]1C=CCC1=O	
N	 0.5239181148	 0.2933099581	 0.9446576393	-0.522206
C	-0.054477518	 0.3304139879	-0.2846184698	 0.391314
O	 0.3306767825	 1.0180545618	-1.2077544756	-0.356114
C	-1.3265064368	-0.5379648042	-0.4020909277	-0.277943
C	-1.7883578541	-0.7777737313	-1.8130851677	-0.047946
C	-2.0152907107	-2.0676612077	-2.0624498325	-0.090934
C	-1.7381252505	-2.9470331922	-0.872311589	-0.359759
C	-1.2061843322	-1.9619936992	 0.1718177812	 0.387094
O	-0.7542428523	-2.2485997753	 1.2547141384	-0.324027
H	 1.4078944917	 0.7650816907	 1.0520923856	 0.259532
H	 0.2844601742	-0.4593034447	 1.5766893261	 0.276993
H	-2.0893107524	-0.0168693065	 0.198245319	 0.142088
H	-1.8937626698	 0.0356458381	-2.5176242071	 0.126616
H	-2.3572145332	-2.4659389387	-3.0101592646	 0.108391
H	-2.6312334049	-3.4506816914	-0.4776298862	 0.14284
H	-1.0008981982	-3.7386565053	-1.0559653494	 0.144061
