14
C1C2NC2C2=C1ON=N2	C1[C@H]2N[C@H]2[C](C1=O)[N][N]	
C	-0.0620078408	 1.696651101	 0.0083287495	-0.318509
C	 1.4416009854	 1.8852017413	-0.0367624277	-0.039561
N	 2.1526919185	 1.3843326436	 1.1565367694	-0.326687
C	 2.1180328549	 0.5572796075	-0.0755934511	-0.189941
C	 1.0322378885	-0.4520602253	-0.0658063343	 0.270663
C	-0.3019022023	 0.1682511323	 0.0299955144	 0.319374
O	-1.3722079009	-0.3834499801	 0.116152151	-0.340918
N	 1.2828759016	-2.868564771	 0.0137031597	-0.223357
N	 1.1962108089	-1.7392007656	-0.0217469693	 0.119619
H	-0.5227798545	 2.1420569731	 0.8941185431	 0.147822
H	-0.5550870481	 2.1166580158	-0.8747635936	 0.133801
H	 1.8578257548	 2.72502225	-0.5822703985	 0.1015
H	 3.0590537345	 1.8434433623	 1.2276096707	 0.236078
H	 3.0307584294	 0.3813960351	-0.6334378435	 0.110114
