17
CCC1=C(N)OC(=N)O1	CCC1=C(N)O[C@@H]([NH])O1	
C	-0.4021846222	 1.5402264092	-0.1635027728	-0.377243
C	 0.0299837703	 0.0741242727	 0.01124884	-0.298956
C	 0.8278174454	-0.4398260452	-1.1285848563	 0.345579
C	 2.0706934173	-0.9077145997	-1.2359202827	 0.124089
N	 3.0706526705	-1.0885039014	-0.2932756116	-0.596362
O	 2.2960932831	-1.2500915271	-2.5879657719	-0.240695
C	 1.1441659674	-0.9627888263	-3.2655489157	 0.486014
N	 0.8942013511	-1.1051115941	-4.4898883782	-0.581718
O	 0.2308011139	-0.4653009852	-2.3809116564	-0.239376
H	 0.4687304539	 2.1986636262	-0.2336582344	 0.122606
H	-0.9957587769	 1.665421984	-1.0728298645	 0.142012
H	-1.0076670538	 1.8626829339	 0.6881168156	 0.118878
H	 0.6379262172	-0.0463707892	 0.9124358042	 0.132304
H	-0.8612716562	-0.5547579815	 0.134787315	 0.12404
H	 3.9021700195	-0.5432717654	-0.5000756107	 0.253771
H	 3.3469430811	-2.0615993127	-0.2019009919	 0.25393
H	 1.7017487883	-1.4893055881	-4.9733573375	 0.231127
