17
CC1=CC2=C(C1)NC=N2	CC1=Cc2c(C1)[nH]cn2	
C	-0.0193388016	 1.4539777684	 0.0457094056	-0.486028
C	-0.0010291105	-0.0391217505	-0.0182006632	 0.301206
C	-0.0371961589	-0.8228664766	-1.1182532893	-0.294056
C	 0.0014389042	-2.2231233188	-0.699201118	 0.29568
C	 0.0612338375	-2.2688049792	 0.6687417312	 0.284617
C	 0.0666375971	-0.8969126484	 1.2584424461	-0.45908
N	 0.0946136837	-3.5989000206	 0.9905395806	-0.379779
C	 0.0526157991	-4.2821096972	-0.2071489857	-0.021678
N	-0.0040370432	-3.4789963659	-1.2509417252	-0.348808
H	 0.8795547849	 1.8536792316	 0.5337654018	 0.121087
H	-0.0746546538	 1.8874365388	-0.9566693069	 0.127047
H	-0.877178865	 1.8283852731	 0.619983017	 0.120939
H	-0.0866845104	-0.4704735829	-2.1408572647	 0.097647
H	 0.9693444352	-0.6672796618	 1.8402835856	 0.126765
H	-0.7889866025	-0.6929220738	 1.9160455859	 0.126771
H	 0.1400177767	-4.0162636378	 1.9049034001	 0.263587
H	 0.0669164475	-5.3614060082	-0.2394348807	 0.124081
