16
NC1=CC(=O)CC1C#C	NC1=CC(=O)C[C@H]1C#C	
N	 0.0800546545	 1.3117992486	-0.0827644878	-0.57697
C	-0.0592172257	-0.0367513259	-0.0318951169	 0.398957
C	-1.1762867993	-0.7835055478	 0.1369234655	-0.341905
C	-0.856874746	-2.2046077608	 0.1492918371	 0.39477
O	-1.6068823231	-3.142727385	 0.317929449	-0.358996
C	 0.6550126788	-2.3423915279	-0.1303906703	-0.345855
C	 1.206747016	-0.8977650421	-0.0744442382	-0.25127
C	 2.1087575904	-0.5190997531	-1.1573932153	 0.312705
C	 2.8441635683	-0.1781242862	-2.0459376063	-0.469148
H	 0.9209175043	 1.670086812	-0.5106739493	 0.266143
H	-0.7440700348	 1.8763416008	-0.2134823529	 0.265749
H	-2.184794146	-0.4066583828	 0.2461420887	 0.096676
H	 1.1270806531	-3.0076516404	 0.595344892	 0.130292
H	 0.793927645	-2.7827501764	-1.1214283964	 0.140629
H	 1.73771899	-0.7410699902	 0.8749757493	 0.13314
H	 3.5002752945	 0.0971988871	-2.8346507881	 0.205082
