19
CC(C[NH+]=CN)C([O-])=O	C[C@@H](CN[C]N)C(=O)O	
C	-0.6721334466	 1.4328383588	-0.7487026244	-0.392409
C	 0.188172068	 0.4138263264	 0.0059070768	-0.125398
C	 0.7729755607	 1.0580038322	 1.2851815771	-0.161212
N	 2.065917658	 0.5132939708	 1.7198957267	-0.221682
H	 2.686100042	 1.1912300077	 2.1617262784	 0.214093
C	 2.3883719384	-0.7689388223	 1.6257197892	-0.0021
N	 3.5895683102	-1.1052569817	 2.0983853243	-0.476871
C	-0.6362413302	-0.865577435	 0.2917328074	 0.396155
O	-1.8032562739	-0.9431770461	-0.0131262371	-0.344132
O	 0.0106744444	-1.8652680756	 0.8738191109	-0.386281
H	-0.0669005964	 2.2877255831	-1.0682179255	 0.096207
H	-1.1270590683	 0.9720438255	-1.6264440881	 0.138502
H	-1.4899034562	 1.7971685711	-0.1202820376	 0.129153
H	 1.0383705222	 0.1201981621	-0.6228576489	 0.102092
H	 0.9388731776	 2.1217921022	 1.088785152	 0.110679
H	 0.0452266767	 0.9971943782	 2.1050366035	 0.131817
H	 0.9761944918	-1.6041142501	 1.0893084415	 0.281741
H	 4.2490771312	-0.4544675582	 2.5176841321	 0.229498
H	 3.8864972202	-2.0636493992	 2.0480001917	 0.280149
