17
CCC1=C(N)N=C(O)O1	CCc1c(N)nc(O)o1	
C	-0.3212341051	 1.6080631276	-0.1655170883	-0.367902
C	 0.0656552712	 0.1285286822	 0.0123537405	-0.304274
C	 0.8500111401	-0.436414627	-1.1136485886	 0.279121
C	 2.0980428735	-0.9433596616	-1.2882519654	 0.166299
N	 3.1231613242	-1.1614499933	-0.3699247969	-0.599466
N	 2.2753387356	-1.3465199279	-2.6137776212	-0.426852
C	 1.1362696935	-1.0637739866	-3.1589935879	 0.469487
O	 0.7682463441	-1.2470929066	-4.4262405039	-0.401822
O	 0.2161978233	-0.5213161814	-2.3701374689	-0.212092
H	 0.5689555009	 2.238737672	-0.252551554	 0.114297
H	-0.9166678922	 1.7437374376	-1.0728654804	 0.132217
H	-0.9127433077	 1.9617593406	 0.6848254116	 0.110581
H	 0.6613303236	 0.0042453175	 0.9244113747	 0.106002
H	-0.8465801246	-0.4639800537	 0.1697104285	 0.116513
H	 3.1515769581	-0.4838023231	 0.379347678	 0.245396
H	 4.0208544391	-1.2164237177	-0.8327304736	 0.252522
H	 1.5215303426	-1.6506466786	-4.875621554	 0.319973
