19
CC1NC1(C[NH3+])C([O-])=O	C[C@H]1N[C@]1(CN)C(=O)O	
C	-0.096740014	 1.580632284	 0.0153309594	-0.412613
C	-0.0666904286	 0.0773510563	 0.161489501	-0.011819
N	 1.1782891455	-0.6243243528	-0.1589825072	-0.374698
C	 0.6697484039	-0.6553411802	 1.2393886353	 0.131665
C	 1.5032374513	 0.0932503183	 2.2621662824	-0.257193
N	 2.4929227158	-0.8099666796	 2.8842036076	-0.53381
H	 1.2586581363	-2.0103365211	 3.1038392073	 0.320171
H	 3.1872839873	-1.0867883089	 2.1954604928	 0.255852
H	 2.9835876767	-0.3443103302	 3.6401786013	 0.248845
C	 0.0385437343	-1.9835855207	 1.6461785306	 0.383506
O	 0.4365207651	-2.4937630068	 2.8120049626	-0.384115
O	-0.7575224843	-2.5488964159	 0.9349118475	-0.352265
H	 0.8686428329	 2.0369611105	 0.2432797673	 0.123489
H	-0.3497649596	 1.8448079652	-1.0167679544	 0.129148
H	-0.8582698367	 2.0215780892	 0.6673253997	 0.123077
H	-0.9801575548	-0.431187908	-0.1365952714	 0.121158
H	 0.9481292605	-1.5151105095	-0.5969649403	 0.246345
H	 1.9676530366	 0.9597011833	 1.781000429	 0.118314
H	 0.8520093218	 0.4616419369	 3.0633308294	 0.124943
