16
C1C2C=C3C=C1C1C3N21	C=C1[CH][C]2C=C[N][C@H]2[CH]1	
C	-1.8885897962	 0.2311394068	 0.5059781437	-0.469618
C	 3.4210553354	 1.1028234241	-0.0729462235	 0.022694
C	 2.8081436785	 0.3370249944	-1.1174647467	-0.272605
C	 1.6138692538	-0.1322470802	-0.5449477884	 0.271437
C	 0.2804283153	-0.1858221742	-0.8511450433	-0.299331
C	-0.532270417	 0.1486632038	 0.3502618819	 0.380622
C	 0.4250690564	 0.4266185282	 1.3579244771	-0.108947
C	 1.7921424708	 0.0414380017	 0.9450337536	-0.053094
N	 2.8548045423	 1.0547041615	 1.1139576065	-0.27214
H	-2.3154529322	 0.6085861699	 1.4261944231	 0.102812
H	-2.5712634274	-0.07050984	-0.2778068054	 0.104848
H	 4.2809040925	 1.7508238039	-0.2299899645	 0.113489
H	 3.0468675183	 0.4164021953	-2.1690785953	 0.111327
H	-0.1459336672	-0.2599214833	-1.8446554791	 0.114291
H	 0.1775026996	 0.8104321329	 2.3428955945	 0.146102
H	 2.117253057	-0.9035704547	 1.4217797859	 0.108113
