15
N=C1OC2=C(CNC2)O1	[NH][C@H]1OC2=C(CNC2)O1	
N	-0.0899188911	 1.2281162094	 0.0483377703	-0.567233
C	-0.0098708714	-0.021856803	 0.0302752645	 0.457112
O	 1.1419313921	-0.8037997671	 0.0237650405	-0.261143
C	 0.6915271247	-2.1066957903	 0.0471529767	 0.244789
C	-0.6273132465	-2.1239587718	 0.0478092518	 0.260652
C	-1.1853964292	-3.4903894895	-0.1534163025	-0.290048
N	 0.060190205	-4.3213159507	-0.0961015424	-0.303504
C	 1.2837868096	-3.4590536324	-0.157664871	-0.289772
O	-1.1195716587	-0.8394693457	 0.0254587673	-0.234843
H	 0.8340722752	 1.6512391022	 0.0511707916	 0.240448
H	-1.8987029559	-3.8175088822	 0.6111065075	 0.124556
H	-1.6836900978	-3.5921595015	-1.1276292609	 0.131663
H	 0.0678801325	-4.8076727397	 0.7909128392	 0.234402
H	 1.7808267323	-3.5480382523	-1.1339501965	 0.130049
H	 2.0080381993	-3.7692070452	 0.603804884	 0.122872
