19
[NH3+]CC1CN1CC([O-])=O	NC[C@H]1CN1CC(=O)O	
N	-2.3591869119	 0.0300629168	 3.0365645411	-0.508729
H	-2.3294427359	 0.0756276015	 4.0513463963	 0.254688
H	-1.7656309389	-1.6075000303	 2.7025924482	 0.320766
H	-3.3356216672	 0.1185219617	 2.7711751872	 0.252804
C	-1.5764949464	 1.1376885917	 2.459534947	-0.214993
C	-0.0714388965	 0.9514840687	 2.5573367455	 0.025359
C	 0.56918193	-0.1186318944	 3.3779639215	-0.267984
N	 0.6474931564	-0.1500122466	 1.9230682005	-0.086014
C	-0.0269618497	-1.1575050044	 1.0870251916	-0.264734
C	-0.3314291743	-2.5048657543	 1.7616773697	 0.376411
O	-1.3473142029	-2.5074644672	 2.6370196336	-0.383257
O	 0.2958039771	-3.5021112091	 1.5194418568	-0.320539
H	-1.8592572399	 1.2229638081	 1.4022354717	 0.12777
H	-1.8244972396	 2.1035605104	 2.9222001361	 0.109912
H	 0.4519187036	 1.9030500463	 2.4612093049	 0.096226
H	 1.5103034539	 0.0740891566	 3.88813642	 0.120876
H	-0.0733502702	-0.8322417578	 3.8866050097	 0.123578
H	-0.9577901648	-0.7515216253	 0.6688684197	 0.102283
H	 0.6375413071	-1.3843703524	 0.2506760889	 0.135576
