18
N#CCNC12CN(C1)C2	N#CCN[C@@]12CN(C1)C2	
N	 0.0602926892	-1.1695109179	-0.0630629	-0.294326
C	 0.0230260831	-0.0156783713	-0.030251002	 0.251611
C	-0.0257956017	 1.4465658109	 0.042892334	-0.283536
N	 1.3170459368	 2.0190127447	 0.0051761091	-0.422792
C	 1.3412183829	 3.4482697542	 0.0280215489	 0.354708
C	 0.7666337823	 4.5121228524	 1.0249291005	-0.224275
N	 1.4578562794	 5.3757260666	-0.0363649072	-0.129051
C	 2.5946282187	 4.3399344852	 0.0311723088	-0.223716
C	 0.8278927372	 4.417843659	-1.0612494912	-0.199178
H	-0.5875157814	 1.816438418	-0.8230989383	 0.16347
H	-0.6101468684	 1.7226088037	 0.9377979715	 0.139845
H	 1.8870316108	 1.635017146	 0.7522407788	 0.233679
H	-0.3153259378	 4.6634961964	 1.067115617	 0.102493
H	 1.2224668083	 4.5922215387	 2.0156474525	 0.102964
H	 3.1834867981	 4.4009058303	 0.9507071269	 0.103222
H	 3.2319350469	 4.3293951739	-0.8564279678	 0.111709
H	 1.3369841657	 4.4143458944	-2.0283406415	 0.111225
H	-0.25058564	 4.5577257647	-1.17471727	 0.101946
