16
NC(=N)N1C2CC2C1=O	NC(=N)N1[C@H]2C[C@H]2C1=O	
N	-0.0804937708	 1.2818583609	-0.0335318797	-0.559585
C	 0.0256545581	-0.0923560569	-0.0048841461	 0.386771
N	 1.0486275464	-0.8299196727	 0.1897204732	-0.545274
N	-1.1923055848	-0.7183975424	-0.3086787213	-0.120161
C	-1.5225001006	-2.1409508244	-0.2246481705	 0.025485
C	-2.1158063236	-2.4568368732	 1.1044895603	-0.281124
C	-2.974699657	-1.7613641271	 0.0396228929	-0.226492
C	-2.5150892702	-0.3194724089	-0.0596863163	 0.430031
O	-3.0004363788	 0.7780723779	 0.0375577314	-0.37583
H	 0.6420446416	 1.7915168204	 0.4478256636	 0.251711
H	-1.0149810998	 1.6673684251	 0.0328944242	 0.275488
H	 1.880632673	-0.2681872744	 0.3611082434	 0.207318
H	-1.1171768464	-2.8461512951	-0.9345048881	 0.134319
H	-2.3827044843	-3.4948895897	 1.2806227252	 0.132958
H	-1.7887633311	-1.9136992479	 1.9851762745	 0.137999
H	-3.8870280317	-2.1843682416	-0.3530322266	 0.126385
