20
C1CC23CC4(CCN24)C13	C1C[C]2C[C](CC[N]2)[CH]1	
C	 0.2129492598	 1.0398315293	-0.6227867653	-0.265446
C	 1.3780041114	 1.3742750569	 0.4171370446	-0.261664
C	 1.3836587489	 0.2139342831	 1.3876593639	 0.257516
C	 1.2155986998	-1.0956630064	 0.6377933702	-0.351661
C	-0.2950342307	-0.9436847843	 0.7298211487	 0.23588
C	-0.7508366911	-1.4333791476	 2.077104459	-0.289768
C	 0.3721867676	-0.9212582042	 3.1041572159	-0.173816
N	 1.0057671027	 0.3079465865	 2.6078885035	-0.213412
C	-0.7878847668	 0.0958670465	 0.0343155678	-0.125391
H	-0.2762944513	 1.9685513772	-0.9258792096	 0.111057
H	 0.6493212156	 0.6152504795	-1.5347976582	 0.117226
H	 2.3285018975	 1.4875610284	-0.1143634266	 0.103464
H	 1.1596554873	 2.2995843395	 0.9521168543	 0.1227
H	 1.6157337109	-1.0724612095	-0.3753144665	 0.104233
H	 1.5914570868	-1.9736288938	 1.1630950041	 0.107281
H	-1.7239587623	-1.0157105959	 2.3459245985	 0.111056
H	-0.8141188517	-2.5250066718	 2.1484224085	 0.104194
H	-0.0906383793	-0.7107166241	 4.0713964181	 0.108964
H	 1.0989249787	-1.727850478	 3.2704117892	 0.107607
H	-1.8127660938	 0.4282533689	 0.1724107598	 0.089981
