14
O=C1CC2CN=CN12	O=C1C[C@H]2CN=CN12	
O	-0.0000929558	-0.0418249091	 0.0711387329	-0.300424
C	-0.0702731764	 1.1445794673	-0.0095936055	 0.402311
C	-1.1844362827	 2.2051916501	-0.0962406826	-0.394819
C	-0.0443606475	 3.2591616526	-0.0546609322	 0.01592
C	 0.2896850682	 4.0677233705	 1.2240630003	-0.193414
N	 1.4913360048	 3.4320049405	 1.8070554649	-0.204766
C	 1.7733467882	 2.4017333452	 1.1195439994	 0.02504
N	 0.9574458759	 2.1507829339	-0.0130665249	-0.139154
H	-1.8022834055	 2.1705379087	-0.995959914	 0.141659
H	-1.8310529011	 2.1929963488	 0.7854126258	 0.145174
H	 0.042630311	 3.8567538581	-0.9639769327	 0.101611
H	 0.5041717535	 5.1150593833	 0.995356481	 0.127766
H	-0.511263058	 4.059397707	 1.9735389212	 0.121431
H	 2.5774099856	 1.7139297231	 1.3565500065	 0.151666
