13
NC(=N)C1=NOC=C1	NC(=N)c1nocc1	
N	-0.0693561015	 1.3186542939	 0.2533195792	-0.52518
C	 0.0714455555	-0.0289924248	 0.0594308845	 0.281021
N	 1.2263499734	-0.555640155	-0.1125565922	-0.526742
C	-1.2100100125	-0.7852678604	 0.0960508935	 0.369897
N	-2.3568968771	-0.1417395496	 0.0837317431	-0.20542
O	-3.3436246693	-1.1090567301	 0.1074360445	-0.163488
C	-2.7610660444	-2.3188555772	 0.1351684918	 0.087735
C	-1.4119990714	-2.1965129387	 0.1293303207	-0.362087
H	 0.734378804	 1.8815379043	 0.0259894904	 0.259368
H	-0.9802464567	 1.7248799923	 0.116515078	 0.273441
H	 1.1583243059	-1.5660659172	-0.2042160354	 0.21393
H	-3.4332986781	-3.1621703933	 0.1585435076	 0.161616
H	-0.6767580378	-2.9825202442	 0.1546277342	 0.13591
