15
[NH3+]CC1=NC(=O)C=N[N-]1	NCc1[nH]c(=O)cnn1	
N	 0.0422408821	 1.2047652575	-0.0490250393	-0.525777
H	 1.1393792168	-0.2070956779	 1.284964008	 0.276528
H	 0.6831167969	 1.9700771644	-0.2320744759	 0.248328
H	-0.5531449818	 1.1155967664	-0.8634047071	 0.25072
C	-0.7570065974	 1.4690741048	 1.1485894745	-0.247372
C	-0.0214607228	 1.031945183	 2.3992553238	 0.445727
N	 0.9381913082	 0.0895850505	 2.2371337526	-0.364064
C	 1.6673731536	-0.4315673479	 3.3076932393	 0.398115
O	 2.5368268197	-1.2658240584	 3.1692077985	-0.369408
C	 1.2197210014	 0.181432085	 4.5621318581	-0.082174
N	 0.2975602881	 1.0850889933	 4.6680367121	-0.167306
N	-0.3552837292	 1.5464547654	 3.5467150534	-0.29601
H	-1.0652663024	 2.5110625331	 1.2947374591	 0.141975
H	-1.676025364	 0.8744997218	 1.0854772203	 0.149402
H	 1.7090927909	-0.1473679811	 5.4745870526	 0.141314
