17
[NH3+]C12CC1NC2C([O-])=O	N[C@]12C[C@H]1N[C@H]2C(=O)O	
N	-0.1908560567	 1.0886845916	-0.065057663	-0.61077
H	-0.0870293847	 0.0944341604	-0.2425261409	 0.242909
H	 0.6757961813	 1.5536432261	-0.3073314958	 0.246071
H	-2.1374399081	 2.0397111877	-0.4574676341	 0.307556
C	-0.6178697174	 1.3758139787	 1.2656517263	 0.27135
C	-0.0281982917	 2.4631546528	 2.1214818022	-0.301465
C	-0.2635964638	 1.1124370298	 2.738703837	-0.076843
N	-1.6946475287	 1.0586208299	 3.113038337	-0.314969
C	-2.0726231489	 1.1224591336	 1.668202827	-0.159665
C	-3.0916701374	 2.1536448802	 1.2071012151	 0.423018
O	-3.9549862316	 2.6430061938	 1.8763218929	-0.320567
O	-2.9418612094	 2.4639020824	-0.1053692567	-0.383796
H	 1.0107535103	 2.6816034248	 1.8869605642	 0.108966
H	-0.615565473	 3.315992081	 2.4535334656	 0.138406
H	 0.496445666	 0.5215133248	 3.2351052114	 0.101509
H	-1.9504977562	 0.1610990606	 3.5099939984	 0.227384
H	-2.3946634401	 0.1436239018	 1.2859082335	 0.100907
