16
ON=C1C=CCC1C#C	ON=C1C=CC[C@H]1C#C	
O	-0.1106041423	 1.3617678639	-0.0377567454	-0.39237
N	 0.0035196531	-0.035348165	-0.1271106117	-0.228836
C	-1.1357912912	-0.6037365392	-0.0346380117	 0.372738
C	-2.4672494592	-0.0347873548	 0.1462042508	-0.141292
C	-3.3937678851	-1.0014672421	 0.1489910612	-0.07191
C	-2.8117456896	-2.3746630113	-0.0551329622	-0.283349
C	-1.264415086	-2.1348664516	-0.0715592667	-0.256059
C	-0.5861811117	-2.7685663261	-1.1930394648	 0.345025
C	-0.0511337637	-3.3104089728	-2.1223746437	-0.471475
H	 0.8048245996	 1.6442568782	-0.1333544227	 0.308207
H	-2.6374623117	 1.0268123121	 0.251397691	 0.126328
H	-4.4600398805	-0.8410270293	 0.2639939876	 0.11113
H	-3.1048476422	-3.073494764	 0.7359236794	 0.12133
H	-3.1514169718	-2.8136952308	-0.9999667142	 0.13429
H	-0.8361576624	-2.5261894561	 0.8594733113	 0.130066
H	 0.4365771447	-3.7770493412	-2.9418499883	 0.196176
