16
CC1=NC=C(O1)C(N)=N	Cc1ncc(o1)C(=N)N	
C	 0.0011573104	 1.401680804	 0.2125031322	-0.492392
C	-0.0142744403	-0.0657180316	-0.0146360311	 0.377497
N	-0.0641961687	-0.7114149803	-1.1395960889	-0.297497
C	-0.0562178672	-2.0488175071	-0.7816924121	-0.180038
C	-0.001127603	-2.1554607663	 0.5702577747	 0.363955
O	 0.026663631	-0.8756886803	 1.0762189737	-0.228009
C	 0.0388324404	-3.286192605	 1.5011857525	 0.211616
N	-0.0016496298	-2.9328179645	 2.8379841739	-0.556607
N	 0.0612735335	-4.4680665517	 1.0068990009	-0.51863
H	 0.9074452095	 1.7100871159	 0.7441750412	 0.14604
H	-0.0346375554	 1.9069041439	-0.7526653202	 0.1624
H	-0.8580910746	 1.7170599032	 0.8135726068	 0.148147
H	-0.0902640725	-2.844741592	-1.5065813316	 0.148998
H	 0.2512047318	-1.9868778401	 3.076425628	 0.261278
H	 0.2930422003	-3.6336938414	 3.4992883017	 0.25004
H	 0.0795167247	-5.1768991669	 1.7414298782	 0.203203
