13
NC1=CC(=O)OC=C1	Nc1cc(=O)occ1	
N	 0.017877721	 1.3926183711	-0.1195110982	-0.579098
C	-0.0080458352	 0.0258580085	-0.0446100555	 0.387444
C	-1.1762902105	-0.6938960926	-0.0187860998	-0.372422
C	-1.2021765752	-2.124330927	 0.0068590315	 0.430102
O	-2.1509785701	-2.861436988	 0.0293727197	-0.357238
O	 0.0856224477	-2.751825249	 0.0125877597	-0.226749
C	 1.2067683246	-2.032405485	-0.0096154778	 0.105654
C	 1.2423853657	-0.6870034772	-0.0382990422	-0.25906
H	 0.8629011635	 1.8679453533	 0.1505221261	 0.261345
H	-0.8332683175	 1.893097528	 0.0793055773	 0.264225
H	-2.1435485648	-0.2062623397	-0.01967385	 0.102177
H	 2.0941309873	-2.656519924	-0.0018722536	 0.139399
H	 2.1906778234	-0.1660788884	-0.0647436173	 0.104221
