19
NC(C([O-])=O)C1([NH3+])CC1	N[C@@H](C(=O)O)C1(N)CC1	
N	 0.317207096	 1.3053649425	 0.2120921023	-0.533652
C	 0.0583253611	-0.1289985704	-0.0304252137	-0.161666
C	-1.450136095	-0.4422866675	 0.0464187884	 0.394924
O	-2.158466338	-0.1257848697	-1.0510464631	-0.382694
O	-1.9733152961	-0.8699340381	 1.0428447489	-0.344153
C	 0.6888565201	-0.5523945883	-1.349583988	 0.355834
N	 0.1524380343	 0.2174123448	-2.4687426022	-0.5942
H	 0.6135466081	 1.1217939463	-2.5220458481	 0.251165
H	 0.3064527465	-0.2558904956	-3.3521235334	 0.24555
H	-1.5255980346	 0.119420889	-1.7717246914	 0.31175
C	 2.1186612092	-1.0265959434	-1.3555034344	-0.305659
C	 0.9838243692	-2.0077186737	-1.5718866901	-0.309477
H	 0.0975128295	 1.5173711233	 1.1814752586	 0.246831
H	-0.3347484921	 1.8619207821	-0.3362346471	 0.2319
H	 0.526429614	-0.6908395144	 0.7800990911	 0.105239
H	 2.7295652573	-0.7676315732	-2.2140962348	 0.110625
H	 2.657002092	-1.0541251166	-0.4147304419	 0.12613
H	 0.7405259265	-2.7056813085	-0.7781475838	 0.136175
H	 0.8399873923	-2.4114002784	-2.5693425272	 0.115376
