11
N=C1NC(C=O)=NO1	[NH][C@@H]1NC(=NO1)C=O	
N	-0.1596480485	 1.3150069332	 0.0090825409	-0.595231
C	-0.0295973293	 0.0625083842	 0.0013846936	 0.498866
N	-1.0396296304	-0.885071428	 0.001937887	-0.39209
C	-0.4581379425	-2.1257808756	-0.0083386375	 0.329926
C	-1.2361382264	-3.3929275184	-0.010933514	 0.100587
O	-0.7420344659	-4.4868981735	-0.0198260876	-0.210862
N	 0.8355684352	-2.0623111672	-0.0153659026	-0.138306
O	 1.1338189533	-0.6883668388	-0.0094522801	-0.226814
H	 0.7421909278	 1.7840329164	 0.0065003789	 0.243402
H	-2.0180569004	-0.65495917	 0.0087524231	 0.294107
H	-2.3369479129	-3.2374364122	-0.0036796218	 0.096416
