14
N=C1C=CN=CN1C=O	[NH]C1=CCN=CN1C=O	
N	-0.0941865211	 1.3505340107	 0.0110736029	-0.554993
C	 0.0326781651	 0.0784880404	 0.0034969649	 0.393106
C	 1.2452231904	-0.7208396814	-0.0077286258	-0.182241
C	 1.1911026178	-2.0686205592	-0.0148267842	 0.002538
N	 0.0109710798	-2.7980516737	-0.0121486519	-0.308655
C	-1.0740260595	-2.1084788025	-0.0021693548	 0.137786
N	-1.1477523145	-0.7291081113	 0.0058522615	-0.191035
C	-2.4315766213	-0.118986672	 0.0166464456	 0.184344
O	-3.4519781184	-0.7536034872	 0.0189340849	-0.288296
H	 0.8202443257	 1.7970229982	 0.0083101148	 0.226561
H	 2.1916232444	-0.1926778893	-0.0101956994	 0.114007
H	 2.0980165084	-2.665224313	-0.0232434416	 0.12705
H	-2.04529709	-2.5912793062	 0.0007123281	 0.171855
H	-2.353708827	 0.9738740164	 0.022271835	 0.167975
