15
OC12CC1C(=O)C1OC21	O[C@]12C[C@H]1C(=O)[C@H]1O[C@@H]21	
O	-0.021437665	 1.3780567568	 0.0789985207	-0.461145
C	 0.0041729963	-0.007129926	-0.0077388424	 0.364997
C	-0.4241187025	-0.7479246705	-1.2340579076	-0.351175
C	-1.281564596	-0.8005582284	 0.0378247766	-0.212346
C	-1.1069602004	-1.9090572631	 1.0445194638	 0.421812
O	-1.9829884114	-2.5878030434	 1.517897251	-0.315808
C	 0.3422735522	-1.9049623903	 1.5190518874	-0.085047
O	 1.3067441386	-2.0654621804	 0.456297734	-0.243254
C	 0.9991226471	-0.7451600223	 0.895753388	-0.046396
H	 0.6331140997	 1.7327868829	-0.5331437191	 0.292234
H	-0.8613675855	-0.1500263139	-2.0266824501	 0.12621
H	 0.1266356012	-1.6246411033	-1.5469430432	 0.15039
H	-2.2532345498	-0.3249990979	-0.0040736853	 0.125234
H	 0.5997717227	-2.3524183181	 2.4739334916	 0.121375
H	 1.8010400127	-0.1834469922	 1.3669799846	 0.112919
