8
O=C1NC=NO1	O=c1[nH]cno1	
O	-0.0173309119	-0.0391972837	 0.0032394123	-0.381999
C	-0.0283619173	 1.15645104	 0.0097233847	 0.524677
N	-1.1044817087	 2.0378998581	 0.0286908886	-0.366845
C	-0.6054045358	 3.3077270569	 0.028741494	 0.092621
N	 0.682695505	 3.336354885	 0.0117526102	-0.109748
O	 1.0741270471	 1.9740712834	-0.0006645863	-0.227271
H	-2.0654254253	 1.7437929668	 0.0399364699	 0.293924
H	-1.2133324432	 4.1998248534	 0.0415410567	 0.174642
