10
OC1=CC=NN1	Oc1ccn[nH]1	
O	 0.1172086118	 1.3325158179	 0.2136984573	-0.426405
C	 0.0732118825	 0.0020651838	-0.0158467857	 0.441711
C	 0.0833986203	-0.7788982856	-1.1538471783	-0.353611
C	 0.013427485	-2.099936235	-0.6504382723	 0.015236
N	-0.0358710509	-2.1426475195	 0.6737577967	-0.236006
N	 0.0023780473	-0.834639989	 1.0419603808	-0.239752
H	 0.165822635	 1.7898422653	-0.6312779495	 0.313974
H	 0.1331906949	-0.4479326846	-2.1781552585	 0.097521
H	-0.0025345252	-3.0216359438	-1.2141661138	 0.110241
H	-0.022603045	-0.5800565298	 2.0144287634	 0.277089
