17
CCC#CC(=O)C(N)=N	CCC#CC(=O)C(=N)N	
C	 0.0560480642	 1.5590268899	 0.0837282455	-0.365535
C	-0.0319281297	 0.0233082022	 0.0217017789	-0.330797
C	-1.3959562089	-0.4783249158	 0.0791322917	 0.125905
C	-2.5426507978	-0.853984986	 0.1225246972	 0.088413
C	-3.8746915587	-1.3833771506	 0.1915373375	 0.168922
O	-4.1112384476	-2.5731575796	 0.3069670025	-0.324282
C	-5.0217153942	-0.3867595031	 0.1030216083	 0.287602
N	-6.2308162278	-0.991302256	 0.2897991715	-0.54577
N	-4.7409631565	 0.8442324797	-0.104858562	-0.513936
H	 1.1003706952	 1.8793835424	 0.0289943112	 0.117621
H	-0.4923583542	 2.0117880933	-0.745830095	 0.140403
H	-0.3739922855	 1.9341742191	 1.0156868762	 0.136916
H	 0.4349492717	-0.3431109326	-0.9021323094	 0.143669
H	 0.5452849688	-0.4224543519	 0.8421875823	 0.142245
H	-6.2271985325	-2.0005135491	 0.272944585	 0.270939
H	-7.0752625907	-0.5134713168	 0.0262173839	 0.252299
H	-5.5863110658	 1.4180539149	-0.1552004854	 0.205384
