18
ON=C1CC2CCC1O2	ON=C1C[C@H]2CC[C@@H]1O2	
O	-0.133009153	 1.3434992157	-0.000318839	-0.393972
N	 0.0112760468	-0.058077008	-0.0163675121	-0.259449
C	-1.1188557329	-0.6322596005	 0.002382125	 0.451852
C	-2.5233789364	-0.06315928	 0.0604688441	-0.319997
C	-3.3246790396	-1.3848806344	-0.0027894174	 0.067008
C	-3.2385141883	-1.9900717775	-1.4244991753	-0.219927
C	-1.78226317	-2.5481151664	-1.4304444816	-0.223672
C	-1.3046959413	-2.1363976782	-0.014220225	-0.018869
O	-2.5006095856	-2.2764486894	 0.7698512506	-0.264126
H	 0.7829747295	 1.6417184784	 0.0114431802	 0.305914
H	-2.6850576461	 0.458739971	 1.0090334905	 0.133132
H	-2.7279187698	 0.6412925123	-0.750218004	 0.124885
H	-4.3226941121	-1.3445719353	 0.4320804428	 0.083254
H	-3.9712814058	-2.7906674409	-1.5447581674	 0.109397
H	-3.4180164809	-1.2474476335	-2.2059011948	 0.103971
H	-1.7714595208	-3.6362486589	-1.5257187984	 0.110208
H	-1.1556136703	-2.1267814513	-2.219247939	 0.114703
H	-0.4891942533	-2.7182356431	 0.4099743207	 0.095688
