21
C1CC23CC4(CCC24)C13	C1C[C]2C[C](CC[CH]2)[CH]1	
C	-0.3137401168	 1.2329332666	-0.1110445424	-0.219752
C	 1.2361621572	 1.2466709266	 0.3221540074	-0.268494
C	 1.4123350401	 0.0884568901	 1.3070920637	 0.203099
C	 1.2451046087	-1.3534235986	 0.7531063545	-0.331256
C	-0.2443587701	-1.0827815126	 0.6572139751	 0.220109
C	-0.9432226134	-1.0816136996	 2.0092581417	-0.249953
C	 0.0985615713	-0.8083825149	 3.1512945337	-0.266728
C	 0.9814442456	 0.2719199717	 2.5694933995	-0.084921
C	-0.4814273264	-0.2487941429	-0.4042193199	-0.201142
H	-0.9133180117	 1.5893938597	 0.7302356343	 0.104029
H	-0.4866669849	 1.892543829	-0.9673780543	 0.096239
H	 1.8560990044	 1.1502957718	-0.5754060653	 0.098476
H	 1.4861163826	 2.1942966881	 0.8086172372	 0.105432
H	 1.7289209379	-1.4729675532	-0.2167874309	 0.108691
H	 1.5928181017	-2.126779789	 1.4442515729	 0.095333
H	-1.7280258814	-0.3166815685	 2.030370307	 0.104776
H	-1.4477883474	-2.0459351214	 2.1637573287	 0.102096
H	-0.3925321477	-0.4839340588	 4.0721835052	 0.101775
H	 0.6396306205	-1.7292321991	 3.3930580776	 0.118974
H	 0.923239615	 1.2729148114	 2.9901222725	 0.09185
H	 0.1266088749	-0.5005271863	-1.2810740284	 0.071365
