11
FC1=NC=NNC1=N	FC1=NC=NN[C@@H]1[NH]	
F	 0.0793235887	 0.0930779065	 0.2388251732	-0.04634
C	-0.0063452506	 1.4008650422	 0.0746348884	 0.302744
N	-1.1516084836	 1.9464594956	-0.0112880839	-0.295257
C	-1.1599340778	 3.3189098943	-0.1822651448	 0.069146
N	-0.1142684929	 4.0784087304	-0.2604176884	-0.168244
N	 1.072021712	 3.4574279734	-0.1645008952	-0.243888
C	 1.2873813249	 2.0955891945	 0.0085479062	 0.265527
N	 2.4686754638	 1.6183899127	 0.0866575813	-0.552133
H	-2.1268220164	 3.7978486035	-0.257051035	 0.147775
H	 1.8865118377	 4.0524808902	-0.2257614236	 0.285595
H	 2.4332838043	 0.6092004468	 0.2117445718	 0.235074
