16
CC1=COC=C([O-])C1=[NH2+]	CC1=CO[CH]C(=O)[C]1N	
C	 0.1464709057	 1.4951368619	 0.0082499465	-0.518374
C	 0.0044300626	-0.0042929577	 0.0075375492	 0.126894
C	-0.1024387344	-0.7059041699	-1.1690406103	-0.002039
O	-0.2282788538	-2.0183845441	-1.2125665924	-0.138251
C	-0.2600379639	-2.762878078	-0.0831991931	-0.107232
C	-0.1640912968	-2.2151210501	 1.2013418048	 0.252856
O	-0.1841658403	-2.8252034652	 2.2937386252	-0.487565
C	-0.0250258446	-0.7470898523	 1.2007956628	 0.205636
N	 0.0647343162	-0.2449218095	 2.4340435524	-0.553001
H	 0.0216450457	-0.9625206281	 3.1551718423	 0.280287
H	 0.1647036061	 0.7304683594	 2.6449270155	 0.26355
H	 1.0809305988	 1.8088715858	 0.4893489922	 0.135761
H	 0.1499986643	 1.8941646213	-1.0091359945	 0.134986
H	-0.6783312651	 1.9755168163	 0.5486545024	 0.135795
H	-0.0935688589	-0.2559152527	-2.1532563417	 0.134975
H	-0.3669151117	-3.8174323371	-0.2889574612	 0.135721
