21
C[NH+](C)CC(N)C([O-])=O	CN(C)C[C@@H](N)C(=O)O	
C	 1.165864175	 0.3723454744	-1.1203368713	-0.318739
N	 0.133103033	-0.2166029349	-0.2771636047	-0.067695
H	 0.1704214736	-2.0763234586	 0.9801531935	 0.245408
C	-0.5527085351	 0.8070435392	 0.5090115505	-0.334568
C	-0.7767338007	-1.0656937162	-1.0435638019	-0.154013
C	-1.5091169122	-2.0944055489	-0.1517824725	-0.145271
N	-0.6452268151	-2.6810335172	 0.8832015487	-0.53339
C	-2.7772454269	-1.4933552722	 0.4976237744	 0.431315
O	-3.6025943938	-0.8796541042	-0.1269908205	-0.34786
O	-2.8700292955	-1.7415595099	 1.8079100209	-0.37381
H	 1.8756167004	 0.9254334318	-0.4974902942	 0.121349
H	 1.715050795	-0.4156633976	-1.6445564955	 0.117879
H	 0.7636296387	 1.0706327163	-1.8767087108	 0.102412
H	-1.1544109118	 1.49201627	-0.1130360517	 0.113495
H	-1.2154105493	 0.3501041878	 1.247161506	 0.141656
H	 0.1898995096	 1.3978683275	 1.0532561651	 0.117521
H	-1.5338758878	-0.4929066406	-1.6028607449	 0.122554
H	-0.1715156192	-1.6168788302	-1.770450156	 0.09559
H	-1.8878285805	-2.8821880766	-0.8120181508	 0.117212
H	-2.0491466331	-2.2548629214	 2.0083575312	 0.30586
H	-0.3255485344	-3.6070134683	 0.6267434844	 0.243093
