16
O=C[C-]1C2CC([NH2+]2)C1=O	O=CC1=CC[C@@H](N)C1=O	
O	-0.8992101438	 0.7023849527	-0.9186618554	-0.263271
C	 0.1029961677	 0.6928409638	-0.2403652625	 0.076879
C	 1.1328273328	 1.7530323264	-0.2793124223	 0.103711
C	 1.0827815696	 2.8863663324	-1.0047768783	-0.125532
C	 2.2662487702	 3.7859168612	-0.7881884645	-0.282181
C	 3.2274811067	 2.9578010321	 0.0904565057	-0.072873
N	 3.8549476835	 3.7120189419	 1.1686848587	-0.510017
H	 4.4100841879	 3.0654581492	 1.7253999317	 0.244926
H	 3.1352103051	 4.056791817	 1.8008460861	 0.228033
C	 2.3767334338	 1.7421209241	 0.5322439763	 0.286399
O	 2.680893446	 0.9578665172	 1.4020208755	-0.330679
H	 0.3204902457	-0.1307172009	 0.4682438742	 0.103531
H	 0.2602816758	 3.1382896532	-1.6663196341	 0.146846
H	 2.7111483048	 4.1108858373	-1.7347371811	 0.136463
H	 1.9559646471	 4.7065371526	-0.2750924991	 0.138222
H	 4.030188647	 2.5534761695	-0.5409315409	 0.119543
