19
O=C1C2CCC1C1CC21	O=C1[C@H]2CC[C@@H]1[C@H]1C[C@@H]21	
O	 0.003483089	 0.0382961813	 0.1122449479	-0.340558
C	-0.0144321357	 1.2339755925	 0.0256307555	 0.407533
C	-1.1882879424	 2.2231895927	 0.0028523694	-0.126905
C	-0.8110631832	 3.0577589129	 1.2588094668	-0.219091
C	 0.7658341762	 3.079743853	 1.2363490544	-0.219092
C	 1.1302585175	 2.2555314591	-0.0301801918	-0.126904
C	 0.7048413932	 3.0930423144	-1.23659148	-0.026855
C	-0.0649760732	 2.4289747919	-2.3527155833	-0.335477
C	-0.8209216059	 3.0717527359	-1.214855983	-0.026854
H	-2.1801710756	 1.7732869959	 0.0109641198	 0.080583
H	-1.2379752915	 4.0628516272	 1.2101298186	 0.104282
H	-1.1845018161	 2.5829306174	 2.1702577683	 0.109494
H	 1.1630075	 4.0963265761	 1.1759570814	 0.104282
H	 1.1781617931	 2.6158486351	 2.1365961649	 0.109494
H	 2.1341283943	 1.833461489	-0.0504986572	 0.080582
H	 1.2502539561	 4.0084150704	-1.4392202723	 0.089699
H	-0.0858274527	 2.9555493868	-3.3004168964	 0.113608
H	-0.0513146772	 1.3476059911	-2.4530737672	 0.132481
H	-1.3972001357	 3.9714753071	-1.4015194855	 0.089699
