12
N#CC#CC1=COC=C1	N#CC#Cc1cocc1	
N	 0.0380379622	-3.7204158274	-0.0183418342	-0.336713
C	 0.0272639841	-2.5576723021	-0.0117276905	 0.157422
C	 0.0146379094	-1.1955662858	-0.0039789177	 0.24762
C	-0.0039394133	 0.0159748101	 0.0030078515	-0.082506
C	 0.0001115575	 1.4211713541	 0.0107360756	 0.083367
C	-1.0964315849	 2.2451789595	 0.0296754772	-0.103336
O	-0.71602215	 3.5354252654	 0.0318845867	-0.127008
C	 0.6484848855	 3.5593891039	 0.0140500681	 0.015459
C	 1.1466073575	 2.3017004829	 0.0005319138	-0.310342
H	-2.1556420221	 2.0503362825	 0.0424995052	 0.163747
H	 1.0971737921	 4.5383224727	 0.0135780677	 0.155627
H	 2.182731552	 2.0062207742	-0.0147275334	 0.136664
