18
[NH3+]C1C(O)CC1C([O-])=O	N[C@H]1[C@@H](O)C[C@H]1C(=O)O	
N	-0.2406087789	 1.8833605131	 0.0677394367	-0.546978
H	-0.3351335463	 1.0453550816	-0.5053508654	 0.257916
H	 1.4615233741	 1.5549194705	 0.7098306748	 0.312301
H	-0.6759240584	 2.6516012618	-0.4288372353	 0.244595
C	-0.8863926069	 1.6278822345	 1.3468430923	 0.021064
C	-1.8016391277	 0.3655885181	 1.4964125695	 0.113037
O	-1.4245619813	-0.6366912693	 0.56473026	-0.443801
C	-1.2125590517	 0.1641319766	 2.9134840092	-0.274759
C	-0.0048558471	 1.0434049758	 2.5048611372	-0.182613
C	 1.2003768686	 0.2290292703	 2.0391036445	 0.392077
O	 1.4433291244	-0.8826872775	 2.4406378545	-0.34473
O	 1.9948447484	 0.8542408034	 1.1599677751	-0.373108
H	-1.3975556136	 2.5284353095	 1.695849989	 0.088497
H	-2.8804055598	 0.5163909641	 1.3980011194	 0.080602
H	-0.7739612054	-1.219428022	 0.9733852551	 0.305697
H	-1.8307503701	 0.6266457762	 3.6859118046	 0.110443
H	-0.9742855184	-0.8607887977	 3.2053663578	 0.132756
H	 0.3586282801	 1.775406341	 3.2323443909	 0.107003
