12
N=C1N=COC(C=O)=N1	[NH]C1=N[C@@H](OC=N1)C=O	
N	 0.1852205937	 1.3818427638	 0.3277476508	-0.476765
C	 0.0903118648	 0.120541181	 0.2221608076	 0.373179
N	 1.2033486267	-0.7258540195	-0.0348077128	-0.28429
C	 0.9916755405	-1.9699894135	-0.1175210556	 0.122419
O	-0.2164895097	-2.5936919129	 0.0165707716	-0.195116
C	-1.257646195	-1.7428429287	 0.2599002505	 0.308019
C	-2.5851057704	-2.4301619172	 0.404997932	 0.110562
O	-2.7288218249	-3.6189457134	 0.3169200512	-0.226336
N	-1.1808043457	-0.4797079511	 0.3657440186	-0.268595
H	 1.1630924024	 1.6480052795	 0.1987632496	 0.237603
H	 1.7786414488	-2.6926767156	-0.3105484097	 0.166738
H	-3.4027313113	-1.7121172225	 0.6008098462	 0.132582
