15
O=CCC1C2OC1C2=O	O=CC[C@H]1[C@H]2O[C@@H]1C2=O	
O	-0.2368485529	 0.0122568354	-0.00749248	-0.230955
C	 0.0010276925	 1.1912254372	-0.0014620188	 0.161363
C	 1.3742453973	 1.7943879366	-0.2088244889	-0.318729
C	 1.380393813	 2.8519600342	-1.3107002757	-0.016585
C	 0.8249591362	 4.2686065322	-0.9614802509	-0.093391
O	 2.0351411022	 4.5023446544	-0.1287505281	-0.297031
C	 2.5930059528	 3.8288165533	-1.3313009989	-0.0959
C	 1.7011086427	 4.8299258917	-2.1156741135	 0.483267
O	 1.7202939828	 5.6367768872	-2.9814216017	-0.299112
H	-0.8094382653	 1.9381165096	 0.1703016207	 0.075057
H	 1.6818510804	 2.2732913184	 0.7290914125	 0.1474
H	 2.074478225	 0.9861664321	-0.4382080308	 0.128824
H	 1.0784541774	 2.4503398335	-2.2837386136	 0.108487
H	-0.1364620894	 4.574188262	-0.5548047264	 0.124006
H	 3.6601324151	 3.6181829622	-1.3458615659	 0.123297
