16
N=C(C#N)N1C2CCC12	[NH][C](C#N)N1[C@H]2CC[C@@H]12	
N	 0.0200343617	 1.2489942847	-0.329064826	-0.486368
C	 0.1045448974	 0.042557407	 0.074924369	 0.214265
C	-1.0981225648	-0.7765347574	 0.0365123357	 0.317012
N	-2.0280049176	-1.4614079591	-0.0037348139	-0.32641
N	 1.1861210415	-0.6090418608	 0.6624623403	-0.116966
C	 2.5189236855	-0.5681260599	 0.0557843844	-0.047044
C	 3.5001453241	-1.0954312539	 1.1110957662	-0.243713
C	 2.6756532925	-2.4340233042	 1.1586292444	-0.238638
C	 1.7347508097	-1.8495854133	 0.0987431896	-0.035135
H	 0.9258095056	 1.7168388776	-0.253052321	 0.230035
H	 2.7092256476	 0.0952064532	-0.7796641358	 0.117026
H	 4.5043984063	-1.2422935882	 0.7097751051	 0.119337
H	 3.5548697912	-0.5124607665	 2.0323426486	 0.121916
H	 3.2483171548	-3.2863986327	 0.7890333302	 0.119182
H	 2.2034428902	-2.692582696	 2.1080070115	 0.125572
H	 1.2005992743	-2.3584625706	-0.6943534083	 0.12993
