13
FC1=NC=CC=C1C=O	Fc1ncccc1C=O	
F	-0.0964197923	 0.0472475232	 0.006903548	-0.031553
C	-0.0609206819	 1.3646654204	 0.0120643813	 0.313278
N	-1.2273047796	 1.9669910277	 0.0297748656	-0.318974
C	-1.2308080558	 3.3052567787	 0.0357342276	 0.014617
C	-0.0744364889	 4.0781288239	 0.0241871711	-0.131241
C	 1.1453823949	 3.4141565863	 0.0055643052	-0.137002
C	 1.1852480663	 2.0190142559	-0.0010118514	 0.005725
C	 2.4958588786	 1.3293380758	-0.0207039457	 0.08751
O	 2.6777187135	 0.1378646333	-0.0280796776	-0.252316
H	-2.2108376451	 3.7749965868	 0.0504310869	 0.131644
H	-0.1332325491	 5.1595024908	 0.0296772157	 0.117536
H	 2.0816885486	 3.9655565383	-0.0040959502	 0.126366
H	 3.3523874407	 2.0430123787	-0.0294870966	 0.074408
