15
NC1=NNC(=N)C(O)=C1	NC1=NNC(=C(O)C1)[NH]	
N	-0.0057095951	 1.4041260514	 0.1077728505	-0.565518
C	 0.0083148296	 0.0179699644	-0.0190189717	 0.410009
N	-1.1445363864	-0.5856545649	-0.0966998384	-0.316063
N	-1.093075716	-1.9387729991	-0.3183775446	-0.324987
C	 0.0149657141	-2.7261649951	-0.4184785248	 0.323392
N	 0.1150225046	-4.0022777153	-0.6048033956	-0.619502
C	 1.2804732618	-1.9926310466	-0.3002376671	 0.429466
O	 2.3665701001	-2.7507011873	-0.4021280721	-0.414482
C	 1.276459449	-0.6516353114	-0.1146137316	-0.319112
H	 0.7245352604	 1.7790261919	 0.6964091468	 0.251245
H	-0.9184195473	 1.759532926	 0.3591962708	 0.254152
H	-2.0055219048	-2.361330408	-0.3849117327	 0.262516
H	-0.7751927256	-4.4861385768	-0.6859715949	 0.208957
H	 2.0001899036	-3.6568381738	-0.5392313859	 0.309744
H	 2.202059892	-0.0923605354	-0.0520830288	 0.110183
