12
FC1=CC(=N)N=C(F)N1	F[C@H]1C=C([NH])N=C(F)N1	
F	 0.0991221893	 0.0654245886	 0.0020065	-0.05145
C	-0.0521419074	 1.3772711432	 0.0112274182	 0.396202
C	-1.2181572662	 2.0255567412	 0.0307229378	-0.323932
C	-1.218520192	 3.4919951986	 0.0386992904	 0.354173
N	-2.3172812393	 4.1422244068	 0.0574279625	-0.53301
N	 0.0513354642	 4.1338506127	 0.0248210592	-0.394441
C	 1.0922807385	 3.4217860066	 0.0066749174	 0.415231
F	 2.2980770075	 3.9645185642	-0.0068384825	-0.060252
N	 1.1536055529	 2.0549258597	-0.0015798375	-0.453002
H	-2.1567221759	 1.4917083971	 0.0406782798	 0.140738
H	-2.1117699643	 5.1427401526	 0.0601134647	 0.220451
H	 2.0323210028	 1.5621667288	-0.016341	 0.289292
