15
NC(=[NH2+])C1=COC=C1[O-]	NC(=N)c1cocc1O	
N	 0.0012485015	 1.3929649864	 0.08804778	-0.556804
C	 0.0489711337	 0.0141704397	 0.0688807774	 0.290175
N	 1.1233951226	-0.6999754034	 0.1030881946	-0.577124
H	 0.5196345397	-2.396134474	-0.0277970674	 0.31744
H	 1.9763292381	-0.1441181954	 0.0934452714	 0.209782
C	-1.2247078948	-0.6990955963	 0.0552457747	 0.128353
C	-2.5142200809	-0.2486476704	 0.1139621639	-0.11005
O	-3.379120952	-1.2731747764	 0.0604684141	-0.145175
C	-2.6479042813	-2.4368996001	-0.0308934609	-0.121167
C	-1.3186238983	-2.1417882586	-0.0323515359	 0.21091
O	-0.2774641484	-2.9793692418	-0.099090021	-0.432974
H	 0.8631514255	 1.8755241	-0.1174387267	 0.251485
H	-0.8131859326	 1.8303186979	-0.3140011038	 0.258197
H	-2.9529449132	 0.7311675023	 0.2170322587	 0.136948
H	-3.2099505696	-3.3517192599	-0.0799972389	 0.140004
