16
C[NH2+]CC1=NON=C1[O-]	CNCc1nonc1O	
C	-0.2269899952	 1.4715010706	-0.3200048392	-0.321237
N	-0.1556050075	 0.0089805821	-0.3081741943	-0.314131
H	-0.1858239564	-0.3188431365	 0.6536018619	 0.243571
H	-1.4139045122	-1.2335159242	-1.1247510283	 0.300495
C	 1.060582327	-0.5206674293	-0.9482898967	-0.264981
C	 0.9161816134	-2.0004881077	-1.1117045438	 0.230431
N	 1.8838496248	-2.8695871975	-1.0862743393	-0.157789
O	 1.3020666252	-4.0833542924	-1.3194356635	-0.160893
N	-0.0663295716	-3.9754611024	-1.4777981961	-0.164723
C	-0.3129736854	-2.6998766826	-1.3538439284	 0.344572
O	-1.5283164518	-2.1611605742	-1.4351366094	-0.407084
H	 0.6502004384	 1.9539463729	 0.1375994966	 0.118262
H	-0.3062706405	 1.8213239608	-1.3538077755	 0.140723
H	-1.1217953434	 1.7945938051	 0.217340728	 0.137209
H	 1.1348362618	-0.0507692145	-1.937645999	 0.142724
H	 1.9877386732	-0.2772357502	-0.4095854429	 0.132852
