15
CC1=NN(C=O)C(=N)N1	CC1=NN(C=O)[C@H]([NH])N1	
C	-0.022473081	 1.4734057594	 0.0130530613	-0.500127
C	 0.002266992	-0.012753119	-0.0184397688	 0.409628
N	-0.0165635036	-0.7262778628	-1.0940309547	-0.258325
N	 0.0195403785	-2.0443273978	-0.6481901257	-0.102866
C	 0.013012123	-3.1294162442	-1.5209712474	 0.175629
O	-0.0235003446	-3.0371958961	-2.7183624032	-0.286074
C	 0.0620161046	-2.1387899634	 0.7551141572	 0.476778
N	 0.1005773222	-3.2219146157	 1.4201048744	-0.593106
N	 0.0486901774	-0.7936358059	 1.122841569	-0.413128
H	 0.8719163401	 1.8724034325	 0.5039841877	 0.14674
H	-0.0615149616	 1.8485268327	-1.0098038223	 0.174686
H	-0.8969799025	 1.8417577059	 0.5604531016	 0.146616
H	 0.0460606571	-4.0699636277	-0.9493417974	 0.134459
H	 0.1266240672	-3.0572097005	 2.4223754544	 0.218092
H	 0.0719055011	-0.4674381574	 2.072927224	 0.270999
