17
CN1C=C(CO)OC1=N	CN1C=C(CO)O[C@@H]1[NH]	
C	 0.002875805	 1.4303012265	-0.0752003938	-0.342362
N	-0.0465004868	-0.0144264826	-0.0808795542	-0.086505
C	-1.1787354206	-0.8230022753	-0.0293104891	-0.220187
C	-0.7750881236	-2.0985471038	-0.0555247224	 0.314288
C	-1.4585801759	-3.4146655445	-0.043910061	-0.182123
O	-1.3305098416	-4.1275237753	-1.2688929477	-0.409844
O	 0.6173483077	-2.1204968341	-0.1350335188	-0.264688
C	 1.074468287	-0.8179929355	-0.1588147871	 0.457771
N	 2.2782142023	-0.4236785537	-0.2338937191	-0.614472
H	 1.0546130696	 1.7174540072	-0.0536850952	 0.182503
H	-0.4641554525	 1.8488605935	-0.9739045484	 0.134004
H	-0.5011220377	 1.8355330465	 0.8086752742	 0.132265
H	-2.1720762155	-0.4107108398	 0.0255308526	 0.150842
H	-1.0856547322	-4.0190225167	 0.7982362232	 0.106742
H	-2.5289565098	-3.2542233895	 0.1121477374	 0.125436
H	-0.3885658516	-4.2353520776	-1.4387565272	 0.292332
H	 2.9187725061	-1.2107302853	-0.2693945233	 0.224
