19
CCC1(O)C2C3OC3C12	CC[C@@]1(O)[C@H]2[C@H]3O[C@H]3[C@@H]12	
C	 0.1982890154	 1.4712270798	 0.2593607897	-0.392168
C	-0.2413019401	 0.0412324727	-0.0840391045	-0.261447
C	 0.6088016972	-0.5840209015	-1.1769444125	 0.418299
O	 0.413898529	 0.0558372186	-2.4255946399	-0.473861
C	 2.0374242657	-1.1127851571	-1.0934100977	-0.179507
C	 2.3562281052	-2.0647294675	 0.0970201144	 0.005404
O	 1.2254056404	-2.179636349	 0.9735177364	-0.245541
C	 1.2359670319	-2.9342677913	-0.2482062807	 0.005166
C	 0.8634499739	-2.0377077337	-1.4666614679	-0.160815
H	 1.2354056145	 1.4906655029	 0.6107430615	 0.120374
H	 0.1179186404	 2.149302741	-0.5987366835	 0.100773
H	-0.4310846474	 1.8883004659	 1.0507489799	 0.118568
H	-0.2106232127	-0.5761466865	 0.8095208701	 0.138586
H	-1.2739020637	 0.0520928724	-0.4542636253	 0.099405
H	 0.7230234815	 0.9637029511	-2.3364663895	 0.283842
H	 2.7992394063	-0.7353977516	-1.7633301809	 0.093988
H	 3.3334477514	-2.2724967543	 0.5166437424	 0.111595
H	 1.0973572272	-4.006027435	-0.1724874529	 0.11308
H	 0.6393653439	-2.4418366071	-2.4451191191	 0.104257
