15
OC12C(NC1=[NH2+])[C-]2C=O	O[C@@]1(C=C1C=O)C(=N)N	
O	 0.200201538	 1.2141044556	 0.104654167	-0.480393
C	-0.2068670483	-0.1336202911	-0.0353061383	 0.263609
C	-1.6488060099	-0.4484596352	 0.1656078501	-0.203086
N	 0.2985907208	-2.1486684836	-1.2475096459	-0.533673
C	 0.5742857866	-0.9107830865	-1.0792339238	 0.277219
N	 1.5355727373	-0.1631378436	-1.7144978448	-0.546371
H	 1.9284485168	-0.5232545159	-2.5689116949	 0.247145
H	 1.4481152084	 0.8378807817	-1.6360130114	 0.260553
C	-0.8393326778	-0.8570108684	 1.0992920396	 0.150886
C	-0.6133139293	-1.5442868623	 2.3687393483	 0.067688
O	 0.4359094887	-1.5154472431	 2.9658367647	-0.264534
H	 0.8876008128	 1.2445636209	 0.7795710239	 0.295261
H	-2.6373908576	-0.3714257931	-0.2536341815	 0.16825
H	 0.8808635601	-2.5636040585	-1.9767206789	 0.19836
H	-1.4955614166	-2.092979617	 2.7571868659	 0.099085
