16
O=COC12CC3C1N3C2	O=CO[C@]12C[C@@H]3[C@H]1N3C2	
O	 0.0074243519	-0.0261178835	-0.1016357008	-0.265495
C	 0.0530926425	 1.1569622598	-0.2457892784	 0.142948
O	 1.0059717014	 1.9176600858	 0.3413907028	-0.248024
C	 0.9909727686	 3.3073858379	 0.1762088609	 0.379793
C	 0.3628242882	 4.0365151212	-1.0457804315	-0.315434
C	 1.3840203113	 5.131590066	-0.7383989257	-0.036607
C	 2.2769342233	 4.205929768	-0.0059817008	-0.110347
N	 1.5629666326	 5.2670543109	 0.753363379	-0.141253
C	 0.6472202297	 4.2367152168	 1.3479609084	-0.196808
H	-0.6549951465	 1.7435296409	-0.8557139501	 0.096085
H	 0.6103142121	 3.543621224	-1.9895155527	 0.124922
H	-0.7049063284	 4.2762519615	-1.0095617914	 0.10985
H	 1.629770873	 6.0018095748	-1.3314106528	 0.112682
H	 3.3428390579	 4.0267034754	 0.0155797144	 0.115184
H	-0.3954439055	 4.5462298273	 1.4834901943	 0.104344
H	 1.072707978	 3.8984634932	 2.2950162845	 0.128159
