20
CC1C2CC1(C#N)C2C	C[C@H]1[C@H]2C[C@]1(C#N)[C@H]2C	
C	-0.1173627647	 1.6455205126	 0.1767511167	-0.44766
C	 0.0092102555	 0.1316103386	 0.1146003169	 0.01565
C	 1.1411894422	-0.5858827198	-0.6955786581	-0.100664
C	 2.143436123	-0.1643866754	 0.4192064623	-0.271377
C	 0.8674176184	-0.6672227354	 1.1645578336	 0.213676
C	 0.6541020818	-0.7323574708	 2.5882490169	 0.149233
N	 0.4696493873	-0.7872096717	 3.7292405988	-0.356586
C	 0.8755571041	-1.8748560342	 0.154542551	 0.020056
C	-0.3311747816	-2.7764514668	-0.0460792447	-0.452456
H	 0.8321646211	 2.1676398097	 0.3112797627	 0.124179
H	-0.570903127	 2.0173111388	-0.7484832934	 0.124216
H	-0.775919491	 1.9352992766	 1.0024092568	 0.134941
H	-0.9826832631	-0.2972920531	-0.0359637671	 0.07935
H	 1.3061475456	-0.5379939557	-1.7719986942	 0.080898
H	 3.0341072744	-0.7857177339	 0.5361528004	 0.107365
H	 2.3860749527	 0.8922012061	 0.5153527696	 0.110195
H	 1.7729785278	-2.4912177289	 0.272231728	 0.080167
H	-1.2716703249	-2.2417159916	-0.1937962585	 0.127182
H	-0.1731354192	-3.4149301763	-0.9219354737	 0.125426
H	-0.4565469625	-3.4346163387	 0.820097276	 0.136208
