9
FC1=NC(=N)N=NO1	FC(=O)[N][C][NH].N#N	
F	-0.3258303165	-0.2210334179	 0.097659638	-0.056258
C	-0.2162797339	 1.0982888809	 0.1891937596	 0.398802
N	-1.4738677734	 1.6626162943	 0.0277442334	-0.380303
C	-1.7417019884	 2.8380336628	 0.2880131843	 0.55123
N	-2.1749784069	 3.9072115182	 0.6323079091	-0.503765
N	 0.9291591206	 4.6867722295	-0.8099628456	-0.012612
N	 2.0220805186	 4.6612257519	-0.9164580342	 0.011932
O	 0.8315108325	 1.6378459227	 0.3545747054	-0.32017
H	-2.0612674026	 4.7750675377	 0.13065049	 0.311143
