17
NC=[NH+]CC(=O)[CH-]C=O	NC=NCC(=CC=O)O	
N	 0.0289421872	 1.3184469972	-0.3729649122	-0.495347
C	 0.088054219	-0.0293657706	-0.2029758087	 0.118602
N	 1.0553044131	-0.6159111501	 0.3815980622	-0.256279
H	 2.9245209894	-0.7980520528	 0.4920566465	 0.299188
C	 1.0596762345	-2.0640215788	 0.4559730335	-0.252767
C	 2.4718387939	-2.5661603963	 0.1812201118	 0.384887
O	 3.4174364469	-1.6349282989	 0.3552825585	-0.393186
C	 2.7455235763	-3.8417352604	-0.1659718888	-0.284236
H	 1.9215325838	-4.5375467465	-0.2838166681	 0.087426
C	 4.0857301242	-4.3547200604	-0.3931638511	 0.130687
O	 4.3376313266	-5.505167713	-0.7005996083	-0.309607
H	 0.6911740612	 1.8882025902	 0.1296211642	 0.267048
H	-0.8446809331	 1.7459250799	-0.6246420264	 0.2695
H	-0.7619515596	-0.5666648816	-0.6419104995	 0.107441
H	 0.7895077367	-2.3714294919	 1.477401398	 0.138739
H	 0.3488207754	-2.5494747701	-0.2266262922	 0.116585
H	 4.8987855447	-3.6086578259	-0.2691939296	 0.071318
