17
CC1NC(C#N)C11CO1	C[C@H]1N[C@@H](C#N)[C@]21CO2	
C	-0.8807739019	 1.2361889882	-0.0250146971	-0.400057
C	-0.0173196002	-0.0114844847	-0.0218101409	-0.031058
N	 1.2877260982	 0.116641016	-0.7385182244	-0.330555
C	 2.0132946054	-0.6138627194	 0.3288178684	-0.214434
C	 3.290984062	-0.029955592	 0.7338824523	 0.304544
N	 4.2934365934	 0.4253149568	 1.0855908783	-0.328239
C	 0.7829181347	-0.382532909	 1.2329882997	 0.412851
C	 0.7199038095	 0.1059257431	 2.6055430065	-0.253492
O	 0.371281434	-1.2497863714	 2.2496380292	-0.260949
H	-0.3059865385	 2.1027844708	 0.312257393	 0.13121
H	-1.2523082243	 1.4446507471	-1.0334395583	 0.125564
H	-1.748970467	 1.1047803551	 0.6297400465	 0.124332
H	-0.6020345912	-0.8849448827	-0.3472473209	 0.08784
H	 1.3327363563	-0.3243105476	-1.6501312191	 0.232954
H	 2.1548755891	-1.688170542	 0.1466086202	 0.126287
H	 1.638440184	 0.2143558645	 3.1785940639	 0.144204
H	-0.1140006336	 0.730138747	 2.9193627426	 0.128999
